
**** 06/11/25 02:28:47 ******* PSpice Lite (April 2011) ******* ID# 10813 ****

 Pseudostatystyka RC


 ****     CIRCUIT DESCRIPTION


******************************************************************************




vcc vcc 0 15

rb1 vcc b RB1MC 82k
rb2 b 0 RB2MC 27k

.model RB1MC RES R=1 lot=10%
.model RB2MC RES R=1 lot=10%

q1 c b e bc107

rc c vcc 1.5k
re e 0 750
.op

vin in 0 ac 1 sin 0 10m 10k
cin in b 1u
ce e 0 100u
cout c out 1u
rload out 0 100k

.ac dec 1 1k 1MEG
.mc 100 ac V(0) ymax output all

.probe

.model bc107 NPN(Is=40.72f  Bf=407 Vaf=21.03 Ikf=1 Ise=40.72f Ne=1.305 Ikr=3.726
 + Isc=594.8p Nc=2.033 Rc=1.393 Cje=12.5p Vje=.5391 Mje=.4869 Tf=441.1p Cjc=6p
 + Mjc=.3821 Tr=114n Xtb=1.5)

.end

**** 06/11/25 02:28:47 ******* PSpice Lite (April 2011) ******* ID# 10813 ****

 Pseudostatystyka RC


 ****     BJT MODEL PARAMETERS


******************************************************************************




               bc107           
               NPN             
       LEVEL    1            
          IS   40.720000E-15 
          BF  407            
          NF    1            
         VAF   21.03         
         IKF    1            
         ISE   40.720000E-15 
          NE    1.305        
          BR    1            
          NR    1            
         IKR    3.726        
         ISC  594.800000E-12 
          NC    2.033        
         ISS    0            
          RE    0            
          RC    1.393        
         CJE   12.500000E-12 
         VJE     .5391       
         MJE     .4869       
         CJC    6.000000E-12 
         VJC     .75         
         MJC     .3821       
        XCJC    1            
         CJS    0            
         VJS     .75         
          TF  441.100000E-12 
          TR  114.000000E-09 
         XTB    1.5          
          KF    0            
          AF    1            
          CN    2.42         
           D     .87         


**** 06/11/25 02:28:47 ******* PSpice Lite (April 2011) ******* ID# 10813 ****

 Pseudostatystyka RC


 ****     Resistor MODEL PARAMETERS


******************************************************************************




               RB1MC           RB2MC           
           R    1               1            


**** 06/11/25 02:28:47 ******* PSpice Lite (April 2011) ******* ID# 10813 ****

 Pseudostatystyka RC


 ****     SMALL SIGNAL BIAS SOLUTION       TEMPERATURE =   27.000 DEG C

                      MONTE CARLO NOMINAL

******************************************************************************



 NODE   VOLTAGE     NODE   VOLTAGE     NODE   VOLTAGE     NODE   VOLTAGE


(    b)    3.4046  (    c)    9.5056  (    e)    2.7587  (   in)    0.0000      

(  out)    0.0000  (  vcc)   15.0000  




    VOLTAGE SOURCE CURRENTS
    NAME         CURRENT

    vcc         -3.804E-03
    vin          0.000E+00

    TOTAL POWER DISSIPATION   5.71E-02  WATTS


**** 06/11/25 02:28:47 ******* PSpice Lite (April 2011) ******* ID# 10813 ****

 Pseudostatystyka RC


 ****     OPERATING POINT INFORMATION      TEMPERATURE =   27.000 DEG C

                      MONTE CARLO NOMINAL

******************************************************************************






**** BIPOLAR JUNCTION TRANSISTORS


NAME         q1        
MODEL        bc107     
IB           1.53E-05 
IC           3.66E-03 
VBE          6.46E-01 
VBC         -6.10E+00 
VCE          6.75E+00 
BETADC       2.39E+02 
GM           1.41E-01 
RPI          1.93E+03 
RX           0.00E+00 
RO           7.41E+03 
CBE          9.17E-11 
CBC          2.58E-12 
CJS          0.00E+00 
BETAAC       2.73E+02 
CBX/CBX2     0.00E+00 
FT/FT2       2.38E+08 


**** 06/11/25 02:28:47 ******* PSpice Lite (April 2011) ******* ID# 10813 ****

 Pseudostatystyka RC


 ****     SMALL SIGNAL BIAS SOLUTION       TEMPERATURE =   27.000 DEG C

                      MONTE CARLO PASS 2

******************************************************************************



 NODE   VOLTAGE     NODE   VOLTAGE     NODE   VOLTAGE     NODE   VOLTAGE


(    b)    3.5878  (    c)    9.1451  (    e)    2.9398  (   in)    0.0000      

(  out)    0.0000  (  vcc)   15.0000  




    VOLTAGE SOURCE CURRENTS
    NAME         CURRENT

    vcc         -4.043E-03
    vin          0.000E+00

    TOTAL POWER DISSIPATION   6.06E-02  WATTS


**** 06/11/25 02:28:47 ******* PSpice Lite (April 2011) ******* ID# 10813 ****

 Pseudostatystyka RC


 ****     OPERATING POINT INFORMATION      TEMPERATURE =   27.000 DEG C

                      MONTE CARLO PASS 2

******************************************************************************






**** BIPOLAR JUNCTION TRANSISTORS


NAME         q1        
MODEL        bc107     
IB           1.65E-05 
IC           3.90E-03 
VBE          6.48E-01 
VBC         -5.56E+00 
VCE          6.21E+00 
BETADC       2.37E+02 
GM           1.50E-01 
RPI          1.80E+03 
RX           0.00E+00 
RO           6.81E+03 
CBE          9.59E-11 
CBC          2.66E-12 
CJS          0.00E+00 
BETAAC       2.70E+02 
CBX/CBX2     0.00E+00 
FT/FT2       2.43E+08 


**** 06/11/25 02:28:47 ******* PSpice Lite (April 2011) ******* ID# 10813 ****

 Pseudostatystyka RC


 ****     SMALL SIGNAL BIAS SOLUTION       TEMPERATURE =   27.000 DEG C

                      MONTE CARLO PASS 3

******************************************************************************



 NODE   VOLTAGE     NODE   VOLTAGE     NODE   VOLTAGE     NODE   VOLTAGE


(    b)    3.6835  (    c)    8.9569  (    e)    3.0344  (   in)    0.0000      

(  out)    0.0000  (  vcc)   15.0000  




    VOLTAGE SOURCE CURRENTS
    NAME         CURRENT

    vcc         -4.178E-03
    vin          0.000E+00

    TOTAL POWER DISSIPATION   6.27E-02  WATTS


**** 06/11/25 02:28:47 ******* PSpice Lite (April 2011) ******* ID# 10813 ****

 Pseudostatystyka RC


 ****     OPERATING POINT INFORMATION      TEMPERATURE =   27.000 DEG C

                      MONTE CARLO PASS 3

******************************************************************************






**** BIPOLAR JUNCTION TRANSISTORS


NAME         q1        
MODEL        bc107     
IB           1.71E-05 
IC           4.03E-03 
VBE          6.49E-01 
VBC         -5.27E+00 
VCE          5.92E+00 
BETADC       2.36E+02 
GM           1.55E-01 
RPI          1.73E+03 
RX           0.00E+00 
RO           6.53E+03 
CBE          9.80E-11 
CBC          2.71E-12 
CJS          0.00E+00 
BETAAC       2.68E+02 
CBX/CBX2     0.00E+00 
FT/FT2       2.45E+08 


**** 06/11/25 02:28:47 ******* PSpice Lite (April 2011) ******* ID# 10813 ****

 Pseudostatystyka RC


 ****     SMALL SIGNAL BIAS SOLUTION       TEMPERATURE =   27.000 DEG C

                      MONTE CARLO PASS 4

******************************************************************************



 NODE   VOLTAGE     NODE   VOLTAGE     NODE   VOLTAGE     NODE   VOLTAGE


(    b)    3.6110  (    c)    9.0996  (    e)    2.9627  (   in)    0.0000      

(  out)    0.0000  (  vcc)   15.0000  




    VOLTAGE SOURCE CURRENTS
    NAME         CURRENT

    vcc         -4.085E-03
    vin          0.000E+00

    TOTAL POWER DISSIPATION   6.13E-02  WATTS


**** 06/11/25 02:28:47 ******* PSpice Lite (April 2011) ******* ID# 10813 ****

 Pseudostatystyka RC


 ****     OPERATING POINT INFORMATION      TEMPERATURE =   27.000 DEG C

                      MONTE CARLO PASS 4

******************************************************************************






**** BIPOLAR JUNCTION TRANSISTORS


NAME         q1        
MODEL        bc107     
IB           1.66E-05 
IC           3.93E-03 
VBE          6.48E-01 
VBC         -5.49E+00 
VCE          6.14E+00 
BETADC       2.37E+02 
GM           1.51E-01 
RPI          1.78E+03 
RX           0.00E+00 
RO           6.74E+03 
CBE          9.64E-11 
CBC          2.67E-12 
CJS          0.00E+00 
BETAAC       2.69E+02 
CBX/CBX2     0.00E+00 
FT/FT2       2.43E+08 


**** 06/11/25 02:28:47 ******* PSpice Lite (April 2011) ******* ID# 10813 ****

 Pseudostatystyka RC


 ****     SMALL SIGNAL BIAS SOLUTION       TEMPERATURE =   27.000 DEG C

                      MONTE CARLO PASS 5

******************************************************************************



 NODE   VOLTAGE     NODE   VOLTAGE     NODE   VOLTAGE     NODE   VOLTAGE


(    b)    3.2117  (    c)    9.8848  (    e)    2.5682  (   in)    0.0000      

(  out)    0.0000  (  vcc)   15.0000  




    VOLTAGE SOURCE CURRENTS
    NAME         CURRENT

    vcc         -3.545E-03
    vin          0.000E+00

    TOTAL POWER DISSIPATION   5.32E-02  WATTS


**** 06/11/25 02:28:47 ******* PSpice Lite (April 2011) ******* ID# 10813 ****

 Pseudostatystyka RC


 ****     OPERATING POINT INFORMATION      TEMPERATURE =   27.000 DEG C

                      MONTE CARLO PASS 5

******************************************************************************






**** BIPOLAR JUNCTION TRANSISTORS


NAME         q1        
MODEL        bc107     
IB           1.41E-05 
IC           3.41E-03 
VBE          6.43E-01 
VBC         -6.67E+00 
VCE          7.32E+00 
BETADC       2.41E+02 
GM           1.31E-01 
RPI          2.10E+03 
RX           0.00E+00 
RO           8.12E+03 
CBE          8.74E-11 
CBC          2.50E-12 
CJS          0.00E+00 
BETAAC       2.76E+02 
CBX/CBX2     0.00E+00 
FT/FT2       2.33E+08 


**** 06/11/25 02:28:47 ******* PSpice Lite (April 2011) ******* ID# 10813 ****

 Pseudostatystyka RC


 ****     SMALL SIGNAL BIAS SOLUTION       TEMPERATURE =   27.000 DEG C

                      MONTE CARLO PASS 6

******************************************************************************



 NODE   VOLTAGE     NODE   VOLTAGE     NODE   VOLTAGE     NODE   VOLTAGE


(    b)    3.1746  (    c)    9.9575  (    e)    2.5317  (   in)    0.0000      

(  out)    0.0000  (  vcc)   15.0000  




    VOLTAGE SOURCE CURRENTS
    NAME         CURRENT

    vcc         -3.493E-03
    vin          0.000E+00

    TOTAL POWER DISSIPATION   5.24E-02  WATTS


**** 06/11/25 02:28:47 ******* PSpice Lite (April 2011) ******* ID# 10813 ****

 Pseudostatystyka RC


 ****     OPERATING POINT INFORMATION      TEMPERATURE =   27.000 DEG C

                      MONTE CARLO PASS 6

******************************************************************************






**** BIPOLAR JUNCTION TRANSISTORS


NAME         q1        
MODEL        bc107     
IB           1.39E-05 
IC           3.36E-03 
VBE          6.43E-01 
VBC         -6.78E+00 
VCE          7.43E+00 
BETADC       2.42E+02 
GM           1.30E-01 
RPI          2.13E+03 
RX           0.00E+00 
RO           8.27E+03 
CBE          8.65E-11 
CBC          2.49E-12 
CJS          0.00E+00 
BETAAC       2.77E+02 
CBX/CBX2     0.00E+00 
FT/FT2       2.32E+08 


**** 06/11/25 02:28:47 ******* PSpice Lite (April 2011) ******* ID# 10813 ****

 Pseudostatystyka RC


 ****     SMALL SIGNAL BIAS SOLUTION       TEMPERATURE =   27.000 DEG C

                      MONTE CARLO PASS 7

******************************************************************************



 NODE   VOLTAGE     NODE   VOLTAGE     NODE   VOLTAGE     NODE   VOLTAGE


(    b)    3.4952  (    c)    9.3273  (    e)    2.8483  (   in)    0.0000      

(  out)    0.0000  (  vcc)   15.0000  




    VOLTAGE SOURCE CURRENTS
    NAME         CURRENT

    vcc         -3.921E-03
    vin          0.000E+00

    TOTAL POWER DISSIPATION   5.88E-02  WATTS


**** 06/11/25 02:28:47 ******* PSpice Lite (April 2011) ******* ID# 10813 ****

 Pseudostatystyka RC


 ****     OPERATING POINT INFORMATION      TEMPERATURE =   27.000 DEG C

                      MONTE CARLO PASS 7

******************************************************************************






**** BIPOLAR JUNCTION TRANSISTORS


NAME         q1        
MODEL        bc107     
IB           1.59E-05 
IC           3.78E-03 
VBE          6.47E-01 
VBC         -5.83E+00 
VCE          6.48E+00 
BETADC       2.38E+02 
GM           1.46E-01 
RPI          1.86E+03 
RX           0.00E+00 
RO           7.10E+03 
CBE          9.38E-11 
CBC          2.62E-12 
CJS          0.00E+00 
BETAAC       2.71E+02 
CBX/CBX2     0.00E+00 
FT/FT2       2.41E+08 


**** 06/11/25 02:28:47 ******* PSpice Lite (April 2011) ******* ID# 10813 ****

 Pseudostatystyka RC


 ****     SMALL SIGNAL BIAS SOLUTION       TEMPERATURE =   27.000 DEG C

                      MONTE CARLO PASS 8

******************************************************************************



 NODE   VOLTAGE     NODE   VOLTAGE     NODE   VOLTAGE     NODE   VOLTAGE


(    b)    3.5837  (    c)    9.1533  (    e)    2.9357  (   in)    0.0000      

(  out)    0.0000  (  vcc)   15.0000  




    VOLTAGE SOURCE CURRENTS
    NAME         CURRENT

    vcc         -4.043E-03
    vin          0.000E+00

    TOTAL POWER DISSIPATION   6.06E-02  WATTS


**** 06/11/25 02:28:47 ******* PSpice Lite (April 2011) ******* ID# 10813 ****

 Pseudostatystyka RC


 ****     OPERATING POINT INFORMATION      TEMPERATURE =   27.000 DEG C

                      MONTE CARLO PASS 8

******************************************************************************






**** BIPOLAR JUNCTION TRANSISTORS


NAME         q1        
MODEL        bc107     
IB           1.65E-05 
IC           3.90E-03 
VBE          6.48E-01 
VBC         -5.57E+00 
VCE          6.22E+00 
BETADC       2.37E+02 
GM           1.50E-01 
RPI          1.80E+03 
RX           0.00E+00 
RO           6.82E+03 
CBE          9.58E-11 
CBC          2.66E-12 
CJS          0.00E+00 
BETAAC       2.70E+02 
CBX/CBX2     0.00E+00 
FT/FT2       2.43E+08 


**** 06/11/25 02:28:47 ******* PSpice Lite (April 2011) ******* ID# 10813 ****

 Pseudostatystyka RC


 ****     SMALL SIGNAL BIAS SOLUTION       TEMPERATURE =   27.000 DEG C

                      MONTE CARLO PASS 9

******************************************************************************



 NODE   VOLTAGE     NODE   VOLTAGE     NODE   VOLTAGE     NODE   VOLTAGE


(    b)    3.4207  (    c)    9.4739  (    e)    2.7746  (   in)    0.0000      

(  out)    0.0000  (  vcc)   15.0000  




    VOLTAGE SOURCE CURRENTS
    NAME         CURRENT

    vcc         -3.830E-03
    vin          0.000E+00

    TOTAL POWER DISSIPATION   5.74E-02  WATTS


**** 06/11/25 02:28:47 ******* PSpice Lite (April 2011) ******* ID# 10813 ****

 Pseudostatystyka RC


 ****     OPERATING POINT INFORMATION      TEMPERATURE =   27.000 DEG C

                      MONTE CARLO PASS 9

******************************************************************************






**** BIPOLAR JUNCTION TRANSISTORS


NAME         q1        
MODEL        bc107     
IB           1.54E-05 
IC           3.68E-03 
VBE          6.46E-01 
VBC         -6.05E+00 
VCE          6.70E+00 
BETADC       2.39E+02 
GM           1.42E-01 
RPI          1.92E+03 
RX           0.00E+00 
RO           7.35E+03 
CBE          9.21E-11 
CBC          2.58E-12 
CJS          0.00E+00 
BETAAC       2.73E+02 
CBX/CBX2     0.00E+00 
FT/FT2       2.39E+08 


**** 06/11/25 02:28:47 ******* PSpice Lite (April 2011) ******* ID# 10813 ****

 Pseudostatystyka RC


 ****     SMALL SIGNAL BIAS SOLUTION       TEMPERATURE =   27.000 DEG C

                      MONTE CARLO PASS 10

******************************************************************************



 NODE   VOLTAGE     NODE   VOLTAGE     NODE   VOLTAGE     NODE   VOLTAGE


(    b)    3.4205  (    c)    9.4743  (    e)    2.7744  (   in)    0.0000      

(  out)    0.0000  (  vcc)   15.0000  




    VOLTAGE SOURCE CURRENTS
    NAME         CURRENT

    vcc         -3.819E-03
    vin          0.000E+00

    TOTAL POWER DISSIPATION   5.73E-02  WATTS


**** 06/11/25 02:28:47 ******* PSpice Lite (April 2011) ******* ID# 10813 ****

 Pseudostatystyka RC


 ****     OPERATING POINT INFORMATION      TEMPERATURE =   27.000 DEG C

                      MONTE CARLO PASS 10

******************************************************************************






**** BIPOLAR JUNCTION TRANSISTORS


NAME         q1        
MODEL        bc107     
IB           1.54E-05 
IC           3.68E-03 
VBE          6.46E-01 
VBC         -6.05E+00 
VCE          6.70E+00 
BETADC       2.39E+02 
GM           1.42E-01 
RPI          1.92E+03 
RX           0.00E+00 
RO           7.35E+03 
CBE          9.21E-11 
CBC          2.58E-12 
CJS          0.00E+00 
BETAAC       2.73E+02 
CBX/CBX2     0.00E+00 
FT/FT2       2.39E+08 


**** 06/11/25 02:28:47 ******* PSpice Lite (April 2011) ******* ID# 10813 ****

 Pseudostatystyka RC


 ****     SMALL SIGNAL BIAS SOLUTION       TEMPERATURE =   27.000 DEG C

                      MONTE CARLO PASS 11

******************************************************************************



 NODE   VOLTAGE     NODE   VOLTAGE     NODE   VOLTAGE     NODE   VOLTAGE


(    b)    3.5483  (    c)    9.2228  (    e)    2.9008  (   in)    0.0000      

(  out)    0.0000  (  vcc)   15.0000  




    VOLTAGE SOURCE CURRENTS
    NAME         CURRENT

    vcc         -4.003E-03
    vin          0.000E+00

    TOTAL POWER DISSIPATION   6.00E-02  WATTS


**** 06/11/25 02:28:47 ******* PSpice Lite (April 2011) ******* ID# 10813 ****

 Pseudostatystyka RC


 ****     OPERATING POINT INFORMATION      TEMPERATURE =   27.000 DEG C

                      MONTE CARLO PASS 11

******************************************************************************






**** BIPOLAR JUNCTION TRANSISTORS


NAME         q1        
MODEL        bc107     
IB           1.62E-05 
IC           3.85E-03 
VBE          6.48E-01 
VBC         -5.67E+00 
VCE          6.32E+00 
BETADC       2.37E+02 
GM           1.48E-01 
RPI          1.82E+03 
RX           0.00E+00 
RO           6.93E+03 
CBE          9.50E-11 
CBC          2.64E-12 
CJS          0.00E+00 
BETAAC       2.71E+02 
CBX/CBX2     0.00E+00 
FT/FT2       2.42E+08 


**** 06/11/25 02:28:47 ******* PSpice Lite (April 2011) ******* ID# 10813 ****

 Pseudostatystyka RC


 ****     SMALL SIGNAL BIAS SOLUTION       TEMPERATURE =   27.000 DEG C

                      MONTE CARLO PASS 12

******************************************************************************



 NODE   VOLTAGE     NODE   VOLTAGE     NODE   VOLTAGE     NODE   VOLTAGE


(    b)    3.2750  (    c)    9.7603  (    e)    2.6307  (   in)    0.0000      

(  out)    0.0000  (  vcc)   15.0000  




    VOLTAGE SOURCE CURRENTS
    NAME         CURRENT

    vcc         -3.634E-03
    vin          0.000E+00

    TOTAL POWER DISSIPATION   5.45E-02  WATTS


**** 06/11/25 02:28:47 ******* PSpice Lite (April 2011) ******* ID# 10813 ****

 Pseudostatystyka RC


 ****     OPERATING POINT INFORMATION      TEMPERATURE =   27.000 DEG C

                      MONTE CARLO PASS 12

******************************************************************************






**** BIPOLAR JUNCTION TRANSISTORS


NAME         q1        
MODEL        bc107     
IB           1.45E-05 
IC           3.49E-03 
VBE          6.44E-01 
VBC         -6.49E+00 
VCE          7.13E+00 
BETADC       2.41E+02 
GM           1.35E-01 
RPI          2.04E+03 
RX           0.00E+00 
RO           7.88E+03 
CBE          8.88E-11 
CBC          2.52E-12 
CJS          0.00E+00 
BETAAC       2.75E+02 
CBX/CBX2     0.00E+00 
FT/FT2       2.35E+08 


**** 06/11/25 02:28:47 ******* PSpice Lite (April 2011) ******* ID# 10813 ****

 Pseudostatystyka RC


 ****     SMALL SIGNAL BIAS SOLUTION       TEMPERATURE =   27.000 DEG C

                      MONTE CARLO PASS 13

******************************************************************************



 NODE   VOLTAGE     NODE   VOLTAGE     NODE   VOLTAGE     NODE   VOLTAGE


(    b)    3.3744  (    c)    9.5648  (    e)    2.7289  (   in)    0.0000      

(  out)    0.0000  (  vcc)   15.0000  




    VOLTAGE SOURCE CURRENTS
    NAME         CURRENT

    vcc         -3.761E-03
    vin          0.000E+00

    TOTAL POWER DISSIPATION   5.64E-02  WATTS


**** 06/11/25 02:28:47 ******* PSpice Lite (April 2011) ******* ID# 10813 ****

 Pseudostatystyka RC


 ****     OPERATING POINT INFORMATION      TEMPERATURE =   27.000 DEG C

                      MONTE CARLO PASS 13

******************************************************************************






**** BIPOLAR JUNCTION TRANSISTORS


NAME         q1        
MODEL        bc107     
IB           1.51E-05 
IC           3.62E-03 
VBE          6.45E-01 
VBC         -6.19E+00 
VCE          6.84E+00 
BETADC       2.40E+02 
GM           1.40E-01 
RPI          1.96E+03 
RX           0.00E+00 
RO           7.51E+03 
CBE          9.10E-11 
CBC          2.56E-12 
CJS          0.00E+00 
BETAAC       2.73E+02 
CBX/CBX2     0.00E+00 
FT/FT2       2.37E+08 


**** 06/11/25 02:28:47 ******* PSpice Lite (April 2011) ******* ID# 10813 ****

 Pseudostatystyka RC


 ****     SMALL SIGNAL BIAS SOLUTION       TEMPERATURE =   27.000 DEG C

                      MONTE CARLO PASS 14

******************************************************************************



 NODE   VOLTAGE     NODE   VOLTAGE     NODE   VOLTAGE     NODE   VOLTAGE


(    b)    3.0973  (    c)   10.1090  (    e)    2.4554  (   in)    0.0000      

(  out)    0.0000  (  vcc)   15.0000  




    VOLTAGE SOURCE CURRENTS
    NAME         CURRENT

    vcc         -3.397E-03
    vin          0.000E+00

    TOTAL POWER DISSIPATION   5.09E-02  WATTS


**** 06/11/25 02:28:47 ******* PSpice Lite (April 2011) ******* ID# 10813 ****

 Pseudostatystyka RC


 ****     OPERATING POINT INFORMATION      TEMPERATURE =   27.000 DEG C

                      MONTE CARLO PASS 14

******************************************************************************






**** BIPOLAR JUNCTION TRANSISTORS


NAME         q1        
MODEL        bc107     
IB           1.34E-05 
IC           3.26E-03 
VBE          6.42E-01 
VBC         -7.01E+00 
VCE          7.65E+00 
BETADC       2.43E+02 
GM           1.26E-01 
RPI          2.21E+03 
RX           0.00E+00 
RO           8.60E+03 
CBE          8.48E-11 
CBC          2.46E-12 
CJS          0.00E+00 
BETAAC       2.78E+02 
CBX/CBX2     0.00E+00 
FT/FT2       2.29E+08 


**** 06/11/25 02:28:47 ******* PSpice Lite (April 2011) ******* ID# 10813 ****

 Pseudostatystyka RC


 ****     SMALL SIGNAL BIAS SOLUTION       TEMPERATURE =   27.000 DEG C

                      MONTE CARLO PASS 15

******************************************************************************



 NODE   VOLTAGE     NODE   VOLTAGE     NODE   VOLTAGE     NODE   VOLTAGE


(    b)    3.3886  (    c)    9.5369  (    e)    2.7430  (   in)    0.0000      

(  out)    0.0000  (  vcc)   15.0000  




    VOLTAGE SOURCE CURRENTS
    NAME         CURRENT

    vcc         -3.778E-03
    vin          0.000E+00

    TOTAL POWER DISSIPATION   5.67E-02  WATTS


**** 06/11/25 02:28:47 ******* PSpice Lite (April 2011) ******* ID# 10813 ****

 Pseudostatystyka RC


 ****     OPERATING POINT INFORMATION      TEMPERATURE =   27.000 DEG C

                      MONTE CARLO PASS 15

******************************************************************************






**** BIPOLAR JUNCTION TRANSISTORS


NAME         q1        
MODEL        bc107     
IB           1.52E-05 
IC           3.64E-03 
VBE          6.46E-01 
VBC         -6.15E+00 
VCE          6.79E+00 
BETADC       2.39E+02 
GM           1.40E-01 
RPI          1.95E+03 
RX           0.00E+00 
RO           7.46E+03 
CBE          9.14E-11 
CBC          2.57E-12 
CJS          0.00E+00 
BETAAC       2.73E+02 
CBX/CBX2     0.00E+00 
FT/FT2       2.38E+08 


**** 06/11/25 02:28:47 ******* PSpice Lite (April 2011) ******* ID# 10813 ****

 Pseudostatystyka RC


 ****     SMALL SIGNAL BIAS SOLUTION       TEMPERATURE =   27.000 DEG C

                      MONTE CARLO PASS 16

******************************************************************************



 NODE   VOLTAGE     NODE   VOLTAGE     NODE   VOLTAGE     NODE   VOLTAGE


(    b)    3.3076  (    c)    9.6961  (    e)    2.6630  (   in)    0.0000      

(  out)    0.0000  (  vcc)   15.0000  




    VOLTAGE SOURCE CURRENTS
    NAME         CURRENT

    vcc         -3.669E-03
    vin          0.000E+00

    TOTAL POWER DISSIPATION   5.50E-02  WATTS


**** 06/11/25 02:28:47 ******* PSpice Lite (April 2011) ******* ID# 10813 ****

 Pseudostatystyka RC


 ****     OPERATING POINT INFORMATION      TEMPERATURE =   27.000 DEG C

                      MONTE CARLO PASS 16

******************************************************************************






**** BIPOLAR JUNCTION TRANSISTORS


NAME         q1        
MODEL        bc107     
IB           1.47E-05 
IC           3.54E-03 
VBE          6.45E-01 
VBC         -6.39E+00 
VCE          7.03E+00 
BETADC       2.40E+02 
GM           1.36E-01 
RPI          2.02E+03 
RX           0.00E+00 
RO           7.75E+03 
CBE          8.95E-11 
CBC          2.54E-12 
CJS          0.00E+00 
BETAAC       2.74E+02 
CBX/CBX2     0.00E+00 
FT/FT2       2.35E+08 


**** 06/11/25 02:28:47 ******* PSpice Lite (April 2011) ******* ID# 10813 ****

 Pseudostatystyka RC


 ****     SMALL SIGNAL BIAS SOLUTION       TEMPERATURE =   27.000 DEG C

                      MONTE CARLO PASS 17

******************************************************************************



 NODE   VOLTAGE     NODE   VOLTAGE     NODE   VOLTAGE     NODE   VOLTAGE


(    b)    3.4623  (    c)    9.3921  (    e)    2.8157  (   in)    0.0000      

(  out)    0.0000  (  vcc)   15.0000  




    VOLTAGE SOURCE CURRENTS
    NAME         CURRENT

    vcc         -3.893E-03
    vin          0.000E+00

    TOTAL POWER DISSIPATION   5.84E-02  WATTS


**** 06/11/25 02:28:47 ******* PSpice Lite (April 2011) ******* ID# 10813 ****

 Pseudostatystyka RC


 ****     OPERATING POINT INFORMATION      TEMPERATURE =   27.000 DEG C

                      MONTE CARLO PASS 17

******************************************************************************






**** BIPOLAR JUNCTION TRANSISTORS


NAME         q1        
MODEL        bc107     
IB           1.57E-05 
IC           3.74E-03 
VBE          6.47E-01 
VBC         -5.93E+00 
VCE          6.58E+00 
BETADC       2.38E+02 
GM           1.44E-01 
RPI          1.89E+03 
RX           0.00E+00 
RO           7.21E+03 
CBE          9.30E-11 
CBC          2.60E-12 
CJS          0.00E+00 
BETAAC       2.72E+02 
CBX/CBX2     0.00E+00 
FT/FT2       2.40E+08 


**** 06/11/25 02:28:47 ******* PSpice Lite (April 2011) ******* ID# 10813 ****

 Pseudostatystyka RC


 ****     SMALL SIGNAL BIAS SOLUTION       TEMPERATURE =   27.000 DEG C

                      MONTE CARLO PASS 18

******************************************************************************



 NODE   VOLTAGE     NODE   VOLTAGE     NODE   VOLTAGE     NODE   VOLTAGE


(    b)    3.5898  (    c)    9.1412  (    e)    2.9418  (   in)    0.0000      

(  out)    0.0000  (  vcc)   15.0000  




    VOLTAGE SOURCE CURRENTS
    NAME         CURRENT

    vcc         -4.044E-03
    vin          0.000E+00

    TOTAL POWER DISSIPATION   6.07E-02  WATTS


**** 06/11/25 02:28:47 ******* PSpice Lite (April 2011) ******* ID# 10813 ****

 Pseudostatystyka RC


 ****     OPERATING POINT INFORMATION      TEMPERATURE =   27.000 DEG C

                      MONTE CARLO PASS 18

******************************************************************************






**** BIPOLAR JUNCTION TRANSISTORS


NAME         q1        
MODEL        bc107     
IB           1.65E-05 
IC           3.91E-03 
VBE          6.48E-01 
VBC         -5.55E+00 
VCE          6.20E+00 
BETADC       2.37E+02 
GM           1.50E-01 
RPI          1.79E+03 
RX           0.00E+00 
RO           6.80E+03 
CBE          9.59E-11 
CBC          2.66E-12 
CJS          0.00E+00 
BETAAC       2.70E+02 
CBX/CBX2     0.00E+00 
FT/FT2       2.43E+08 


**** 06/11/25 02:28:47 ******* PSpice Lite (April 2011) ******* ID# 10813 ****

 Pseudostatystyka RC


 ****     SMALL SIGNAL BIAS SOLUTION       TEMPERATURE =   27.000 DEG C

                      MONTE CARLO PASS 19

******************************************************************************



 NODE   VOLTAGE     NODE   VOLTAGE     NODE   VOLTAGE     NODE   VOLTAGE


(    b)    3.4347  (    c)    9.4462  (    e)    2.7885  (   in)    0.0000      

(  out)    0.0000  (  vcc)   15.0000  




    VOLTAGE SOURCE CURRENTS
    NAME         CURRENT

    vcc         -3.841E-03
    vin          0.000E+00

    TOTAL POWER DISSIPATION   5.76E-02  WATTS


**** 06/11/25 02:28:47 ******* PSpice Lite (April 2011) ******* ID# 10813 ****

 Pseudostatystyka RC


 ****     OPERATING POINT INFORMATION      TEMPERATURE =   27.000 DEG C

                      MONTE CARLO PASS 19

******************************************************************************






**** BIPOLAR JUNCTION TRANSISTORS


NAME         q1        
MODEL        bc107     
IB           1.55E-05 
IC           3.70E-03 
VBE          6.46E-01 
VBC         -6.01E+00 
VCE          6.66E+00 
BETADC       2.39E+02 
GM           1.43E-01 
RPI          1.91E+03 
RX           0.00E+00 
RO           7.30E+03 
CBE          9.24E-11 
CBC          2.59E-12 
CJS          0.00E+00 
BETAAC       2.72E+02 
CBX/CBX2     0.00E+00 
FT/FT2       2.39E+08 


**** 06/11/25 02:28:47 ******* PSpice Lite (April 2011) ******* ID# 10813 ****

 Pseudostatystyka RC


 ****     SMALL SIGNAL BIAS SOLUTION       TEMPERATURE =   27.000 DEG C

                      MONTE CARLO PASS 20

******************************************************************************



 NODE   VOLTAGE     NODE   VOLTAGE     NODE   VOLTAGE     NODE   VOLTAGE


(    b)    3.5625  (    c)    9.1949  (    e)    2.9148  (   in)    0.0000      

(  out)    0.0000  (  vcc)   15.0000  




    VOLTAGE SOURCE CURRENTS
    NAME         CURRENT

    vcc         -4.007E-03
    vin          0.000E+00

    TOTAL POWER DISSIPATION   6.01E-02  WATTS


**** 06/11/25 02:28:47 ******* PSpice Lite (April 2011) ******* ID# 10813 ****

 Pseudostatystyka RC


 ****     OPERATING POINT INFORMATION      TEMPERATURE =   27.000 DEG C

                      MONTE CARLO PASS 20

******************************************************************************






**** BIPOLAR JUNCTION TRANSISTORS


NAME         q1        
MODEL        bc107     
IB           1.63E-05 
IC           3.87E-03 
VBE          6.48E-01 
VBC         -5.63E+00 
VCE          6.28E+00 
BETADC       2.37E+02 
GM           1.49E-01 
RPI          1.81E+03 
RX           0.00E+00 
RO           6.89E+03 
CBE          9.53E-11 
CBC          2.65E-12 
CJS          0.00E+00 
BETAAC       2.70E+02 
CBX/CBX2     0.00E+00 
FT/FT2       2.42E+08 


**** 06/11/25 02:28:47 ******* PSpice Lite (April 2011) ******* ID# 10813 ****

 Pseudostatystyka RC


 ****     SMALL SIGNAL BIAS SOLUTION       TEMPERATURE =   27.000 DEG C

                      MONTE CARLO PASS 21

******************************************************************************



 NODE   VOLTAGE     NODE   VOLTAGE     NODE   VOLTAGE     NODE   VOLTAGE


(    b)    3.4977  (    c)    9.3224  (    e)    2.8507  (   in)    0.0000      

(  out)    0.0000  (  vcc)   15.0000  




    VOLTAGE SOURCE CURRENTS
    NAME         CURRENT

    vcc         -3.932E-03
    vin          0.000E+00

    TOTAL POWER DISSIPATION   5.90E-02  WATTS


**** 06/11/25 02:28:47 ******* PSpice Lite (April 2011) ******* ID# 10813 ****

 Pseudostatystyka RC


 ****     OPERATING POINT INFORMATION      TEMPERATURE =   27.000 DEG C

                      MONTE CARLO PASS 21

******************************************************************************






**** BIPOLAR JUNCTION TRANSISTORS


NAME         q1        
MODEL        bc107     
IB           1.59E-05 
IC           3.79E-03 
VBE          6.47E-01 
VBC         -5.82E+00 
VCE          6.47E+00 
BETADC       2.38E+02 
GM           1.46E-01 
RPI          1.86E+03 
RX           0.00E+00 
RO           7.09E+03 
CBE          9.38E-11 
CBC          2.62E-12 
CJS          0.00E+00 
BETAAC       2.71E+02 
CBX/CBX2     0.00E+00 
FT/FT2       2.41E+08 


**** 06/11/25 02:28:47 ******* PSpice Lite (April 2011) ******* ID# 10813 ****

 Pseudostatystyka RC


 ****     SMALL SIGNAL BIAS SOLUTION       TEMPERATURE =   27.000 DEG C

                      MONTE CARLO PASS 22

******************************************************************************



 NODE   VOLTAGE     NODE   VOLTAGE     NODE   VOLTAGE     NODE   VOLTAGE


(    b)    3.2494  (    c)    9.8106  (    e)    2.6055  (   in)    0.0000      

(  out)    0.0000  (  vcc)   15.0000  




    VOLTAGE SOURCE CURRENTS
    NAME         CURRENT

    vcc         -3.605E-03
    vin          0.000E+00

    TOTAL POWER DISSIPATION   5.41E-02  WATTS


**** 06/11/25 02:28:47 ******* PSpice Lite (April 2011) ******* ID# 10813 ****

 Pseudostatystyka RC


 ****     OPERATING POINT INFORMATION      TEMPERATURE =   27.000 DEG C

                      MONTE CARLO PASS 22

******************************************************************************






**** BIPOLAR JUNCTION TRANSISTORS


NAME         q1        
MODEL        bc107     
IB           1.44E-05 
IC           3.46E-03 
VBE          6.44E-01 
VBC         -6.56E+00 
VCE          7.21E+00 
BETADC       2.41E+02 
GM           1.33E-01 
RPI          2.07E+03 
RX           0.00E+00 
RO           7.97E+03 
CBE          8.82E-11 
CBC          2.51E-12 
CJS          0.00E+00 
BETAAC       2.75E+02 
CBX/CBX2     0.00E+00 
FT/FT2       2.34E+08 


**** 06/11/25 02:28:47 ******* PSpice Lite (April 2011) ******* ID# 10813 ****

 Pseudostatystyka RC


 ****     SMALL SIGNAL BIAS SOLUTION       TEMPERATURE =   27.000 DEG C

                      MONTE CARLO PASS 23

******************************************************************************



 NODE   VOLTAGE     NODE   VOLTAGE     NODE   VOLTAGE     NODE   VOLTAGE


(    b)    3.3971  (    c)    9.5202  (    e)    2.7513  (   in)    0.0000      

(  out)    0.0000  (  vcc)   15.0000  




    VOLTAGE SOURCE CURRENTS
    NAME         CURRENT

    vcc         -3.796E-03
    vin          0.000E+00

    TOTAL POWER DISSIPATION   5.69E-02  WATTS


**** 06/11/25 02:28:47 ******* PSpice Lite (April 2011) ******* ID# 10813 ****

 Pseudostatystyka RC


 ****     OPERATING POINT INFORMATION      TEMPERATURE =   27.000 DEG C

                      MONTE CARLO PASS 23

******************************************************************************






**** BIPOLAR JUNCTION TRANSISTORS


NAME         q1        
MODEL        bc107     
IB           1.53E-05 
IC           3.65E-03 
VBE          6.46E-01 
VBC         -6.12E+00 
VCE          6.77E+00 
BETADC       2.39E+02 
GM           1.41E-01 
RPI          1.94E+03 
RX           0.00E+00 
RO           7.43E+03 
CBE          9.16E-11 
CBC          2.57E-12 
CJS          0.00E+00 
BETAAC       2.73E+02 
CBX/CBX2     0.00E+00 
FT/FT2       2.38E+08 


**** 06/11/25 02:28:47 ******* PSpice Lite (April 2011) ******* ID# 10813 ****

 Pseudostatystyka RC


 ****     SMALL SIGNAL BIAS SOLUTION       TEMPERATURE =   27.000 DEG C

                      MONTE CARLO PASS 24

******************************************************************************



 NODE   VOLTAGE     NODE   VOLTAGE     NODE   VOLTAGE     NODE   VOLTAGE


(    b)    3.4292  (    c)    9.4571  (    e)    2.7831  (   in)    0.0000      

(  out)    0.0000  (  vcc)   15.0000  




    VOLTAGE SOURCE CURRENTS
    NAME         CURRENT

    vcc         -3.827E-03
    vin          0.000E+00

    TOTAL POWER DISSIPATION   5.74E-02  WATTS


**** 06/11/25 02:28:47 ******* PSpice Lite (April 2011) ******* ID# 10813 ****

 Pseudostatystyka RC


 ****     OPERATING POINT INFORMATION      TEMPERATURE =   27.000 DEG C

                      MONTE CARLO PASS 24

******************************************************************************






**** BIPOLAR JUNCTION TRANSISTORS


NAME         q1        
MODEL        bc107     
IB           1.55E-05 
IC           3.70E-03 
VBE          6.46E-01 
VBC         -6.03E+00 
VCE          6.67E+00 
BETADC       2.39E+02 
GM           1.42E-01 
RPI          1.91E+03 
RX           0.00E+00 
RO           7.32E+03 
CBE          9.23E-11 
CBC          2.59E-12 
CJS          0.00E+00 
BETAAC       2.73E+02 
CBX/CBX2     0.00E+00 
FT/FT2       2.39E+08 


**** 06/11/25 02:28:47 ******* PSpice Lite (April 2011) ******* ID# 10813 ****

 Pseudostatystyka RC


 ****     SMALL SIGNAL BIAS SOLUTION       TEMPERATURE =   27.000 DEG C

                      MONTE CARLO PASS 25

******************************************************************************



 NODE   VOLTAGE     NODE   VOLTAGE     NODE   VOLTAGE     NODE   VOLTAGE


(    b)    3.3048  (    c)    9.7017  (    e)    2.6602  (   in)    0.0000      

(  out)    0.0000  (  vcc)   15.0000  




    VOLTAGE SOURCE CURRENTS
    NAME         CURRENT

    vcc         -3.676E-03
    vin          0.000E+00

    TOTAL POWER DISSIPATION   5.51E-02  WATTS


**** 06/11/25 02:28:47 ******* PSpice Lite (April 2011) ******* ID# 10813 ****

 Pseudostatystyka RC


 ****     OPERATING POINT INFORMATION      TEMPERATURE =   27.000 DEG C

                      MONTE CARLO PASS 25

******************************************************************************






**** BIPOLAR JUNCTION TRANSISTORS


NAME         q1        
MODEL        bc107     
IB           1.47E-05 
IC           3.53E-03 
VBE          6.45E-01 
VBC         -6.40E+00 
VCE          7.04E+00 
BETADC       2.40E+02 
GM           1.36E-01 
RPI          2.02E+03 
RX           0.00E+00 
RO           7.76E+03 
CBE          8.95E-11 
CBC          2.54E-12 
CJS          0.00E+00 
BETAAC       2.75E+02 
CBX/CBX2     0.00E+00 
FT/FT2       2.35E+08 


**** 06/11/25 02:28:47 ******* PSpice Lite (April 2011) ******* ID# 10813 ****

 Pseudostatystyka RC


 ****     SMALL SIGNAL BIAS SOLUTION       TEMPERATURE =   27.000 DEG C

                      MONTE CARLO PASS 26

******************************************************************************



 NODE   VOLTAGE     NODE   VOLTAGE     NODE   VOLTAGE     NODE   VOLTAGE


(    b)    3.7859  (    c)    8.7555  (    e)    3.1356  (   in)    0.0000      

(  out)    0.0000  (  vcc)   15.0000  




    VOLTAGE SOURCE CURRENTS
    NAME         CURRENT

    vcc         -4.313E-03
    vin          0.000E+00

    TOTAL POWER DISSIPATION   6.47E-02  WATTS


**** 06/11/25 02:28:47 ******* PSpice Lite (April 2011) ******* ID# 10813 ****

 Pseudostatystyka RC


 ****     OPERATING POINT INFORMATION      TEMPERATURE =   27.000 DEG C

                      MONTE CARLO PASS 26

******************************************************************************






**** BIPOLAR JUNCTION TRANSISTORS


NAME         q1        
MODEL        bc107     
IB           1.78E-05 
IC           4.16E-03 
VBE          6.50E-01 
VBC         -4.97E+00 
VCE          5.62E+00 
BETADC       2.34E+02 
GM           1.60E-01 
RPI          1.66E+03 
RX           0.00E+00 
RO           6.24E+03 
CBE          1.00E-10 
CBC          2.76E-12 
CJS          0.00E+00 
BETAAC       2.66E+02 
CBX/CBX2     0.00E+00 
FT/FT2       2.47E+08 


**** 06/11/25 02:28:47 ******* PSpice Lite (April 2011) ******* ID# 10813 ****

 Pseudostatystyka RC


 ****     SMALL SIGNAL BIAS SOLUTION       TEMPERATURE =   27.000 DEG C

                      MONTE CARLO PASS 27

******************************************************************************



 NODE   VOLTAGE     NODE   VOLTAGE     NODE   VOLTAGE     NODE   VOLTAGE


(    b)    3.1105  (    c)   10.0840  (    e)    2.4684  (   in)    0.0000      

(  out)    0.0000  (  vcc)   15.0000  




    VOLTAGE SOURCE CURRENTS
    NAME         CURRENT

    vcc         -3.414E-03
    vin          0.000E+00

    TOTAL POWER DISSIPATION   5.12E-02  WATTS


**** 06/11/25 02:28:47 ******* PSpice Lite (April 2011) ******* ID# 10813 ****

 Pseudostatystyka RC


 ****     OPERATING POINT INFORMATION      TEMPERATURE =   27.000 DEG C

                      MONTE CARLO PASS 27

******************************************************************************






**** BIPOLAR JUNCTION TRANSISTORS


NAME         q1        
MODEL        bc107     
IB           1.35E-05 
IC           3.28E-03 
VBE          6.42E-01 
VBC         -6.97E+00 
VCE          7.62E+00 
BETADC       2.43E+02 
GM           1.26E-01 
RPI          2.20E+03 
RX           0.00E+00 
RO           8.54E+03 
CBE          8.51E-11 
CBC          2.46E-12 
CJS          0.00E+00 
BETAAC       2.77E+02 
CBX/CBX2     0.00E+00 
FT/FT2       2.30E+08 


**** 06/11/25 02:28:47 ******* PSpice Lite (April 2011) ******* ID# 10813 ****

 Pseudostatystyka RC


 ****     SMALL SIGNAL BIAS SOLUTION       TEMPERATURE =   27.000 DEG C

                      MONTE CARLO PASS 28

******************************************************************************



 NODE   VOLTAGE     NODE   VOLTAGE     NODE   VOLTAGE     NODE   VOLTAGE


(    b)    3.4663  (    c)    9.3842  (    e)    2.8197  (   in)    0.0000      

(  out)    0.0000  (  vcc)   15.0000  




    VOLTAGE SOURCE CURRENTS
    NAME         CURRENT

    vcc         -3.877E-03
    vin          0.000E+00

    TOTAL POWER DISSIPATION   5.81E-02  WATTS


**** 06/11/25 02:28:47 ******* PSpice Lite (April 2011) ******* ID# 10813 ****

 Pseudostatystyka RC


 ****     OPERATING POINT INFORMATION      TEMPERATURE =   27.000 DEG C

                      MONTE CARLO PASS 28

******************************************************************************






**** BIPOLAR JUNCTION TRANSISTORS


NAME         q1        
MODEL        bc107     
IB           1.57E-05 
IC           3.74E-03 
VBE          6.47E-01 
VBC         -5.92E+00 
VCE          6.56E+00 
BETADC       2.38E+02 
GM           1.44E-01 
RPI          1.89E+03 
RX           0.00E+00 
RO           7.20E+03 
CBE          9.31E-11 
CBC          2.60E-12 
CJS          0.00E+00 
BETAAC       2.72E+02 
CBX/CBX2     0.00E+00 
FT/FT2       2.40E+08 


**** 06/11/25 02:28:47 ******* PSpice Lite (April 2011) ******* ID# 10813 ****

 Pseudostatystyka RC


 ****     SMALL SIGNAL BIAS SOLUTION       TEMPERATURE =   27.000 DEG C

                      MONTE CARLO PASS 29

******************************************************************************



 NODE   VOLTAGE     NODE   VOLTAGE     NODE   VOLTAGE     NODE   VOLTAGE


(    b)    3.3299  (    c)    9.6524  (    e)    2.6849  (   in)    0.0000      

(  out)    0.0000  (  vcc)   15.0000  




    VOLTAGE SOURCE CURRENTS
    NAME         CURRENT

    vcc         -3.708E-03
    vin          0.000E+00

    TOTAL POWER DISSIPATION   5.56E-02  WATTS


**** 06/11/25 02:28:47 ******* PSpice Lite (April 2011) ******* ID# 10813 ****

 Pseudostatystyka RC


 ****     OPERATING POINT INFORMATION      TEMPERATURE =   27.000 DEG C

                      MONTE CARLO PASS 29

******************************************************************************






**** BIPOLAR JUNCTION TRANSISTORS


NAME         q1        
MODEL        bc107     
IB           1.48E-05 
IC           3.57E-03 
VBE          6.45E-01 
VBC         -6.32E+00 
VCE          6.97E+00 
BETADC       2.40E+02 
GM           1.37E-01 
RPI          2.00E+03 
RX           0.00E+00 
RO           7.67E+03 
CBE          9.00E-11 
CBC          2.55E-12 
CJS          0.00E+00 
BETAAC       2.74E+02 
CBX/CBX2     0.00E+00 
FT/FT2       2.36E+08 


**** 06/11/25 02:28:47 ******* PSpice Lite (April 2011) ******* ID# 10813 ****

 Pseudostatystyka RC


 ****     SMALL SIGNAL BIAS SOLUTION       TEMPERATURE =   27.000 DEG C

                      MONTE CARLO PASS 30

******************************************************************************



 NODE   VOLTAGE     NODE   VOLTAGE     NODE   VOLTAGE     NODE   VOLTAGE


(    b)    3.6764  (    c)    8.9709  (    e)    3.0273  (   in)    0.0000      

(  out)    0.0000  (  vcc)   15.0000  




    VOLTAGE SOURCE CURRENTS
    NAME         CURRENT

    vcc         -4.164E-03
    vin          0.000E+00

    TOTAL POWER DISSIPATION   6.25E-02  WATTS


**** 06/11/25 02:28:47 ******* PSpice Lite (April 2011) ******* ID# 10813 ****

 Pseudostatystyka RC


 ****     OPERATING POINT INFORMATION      TEMPERATURE =   27.000 DEG C

                      MONTE CARLO PASS 30

******************************************************************************






**** BIPOLAR JUNCTION TRANSISTORS


NAME         q1        
MODEL        bc107     
IB           1.71E-05 
IC           4.02E-03 
VBE          6.49E-01 
VBC         -5.29E+00 
VCE          5.94E+00 
BETADC       2.36E+02 
GM           1.55E-01 
RPI          1.73E+03 
RX           0.00E+00 
RO           6.55E+03 
CBE          9.79E-11 
CBC          2.70E-12 
CJS          0.00E+00 
BETAAC       2.68E+02 
CBX/CBX2     0.00E+00 
FT/FT2       2.45E+08 


**** 06/11/25 02:28:47 ******* PSpice Lite (April 2011) ******* ID# 10813 ****

 Pseudostatystyka RC


 ****     SMALL SIGNAL BIAS SOLUTION       TEMPERATURE =   27.000 DEG C

                      MONTE CARLO PASS 31

******************************************************************************



 NODE   VOLTAGE     NODE   VOLTAGE     NODE   VOLTAGE     NODE   VOLTAGE


(    b)    3.4049  (    c)    9.5048  (    e)    2.7591  (   in)    0.0000      

(  out)    0.0000  (  vcc)   15.0000  




    VOLTAGE SOURCE CURRENTS
    NAME         CURRENT

    vcc         -3.796E-03
    vin          0.000E+00

    TOTAL POWER DISSIPATION   5.69E-02  WATTS


**** 06/11/25 02:28:47 ******* PSpice Lite (April 2011) ******* ID# 10813 ****

 Pseudostatystyka RC


 ****     OPERATING POINT INFORMATION      TEMPERATURE =   27.000 DEG C

                      MONTE CARLO PASS 31

******************************************************************************






**** BIPOLAR JUNCTION TRANSISTORS


NAME         q1        
MODEL        bc107     
IB           1.53E-05 
IC           3.66E-03 
VBE          6.46E-01 
VBC         -6.10E+00 
VCE          6.75E+00 
BETADC       2.39E+02 
GM           1.41E-01 
RPI          1.93E+03 
RX           0.00E+00 
RO           7.40E+03 
CBE          9.17E-11 
CBC          2.58E-12 
CJS          0.00E+00 
BETAAC       2.73E+02 
CBX/CBX2     0.00E+00 
FT/FT2       2.38E+08 


**** 06/11/25 02:28:47 ******* PSpice Lite (April 2011) ******* ID# 10813 ****

 Pseudostatystyka RC


 ****     SMALL SIGNAL BIAS SOLUTION       TEMPERATURE =   27.000 DEG C

                      MONTE CARLO PASS 32

******************************************************************************



 NODE   VOLTAGE     NODE   VOLTAGE     NODE   VOLTAGE     NODE   VOLTAGE


(    b)    3.8024  (    c)    8.7229  (    e)    3.1520  (   in)    0.0000      

(  out)    0.0000  (  vcc)   15.0000  




    VOLTAGE SOURCE CURRENTS
    NAME         CURRENT

    vcc         -4.335E-03
    vin          0.000E+00

    TOTAL POWER DISSIPATION   6.50E-02  WATTS


**** 06/11/25 02:28:47 ******* PSpice Lite (April 2011) ******* ID# 10813 ****

 Pseudostatystyka RC


 ****     OPERATING POINT INFORMATION      TEMPERATURE =   27.000 DEG C

                      MONTE CARLO PASS 32

******************************************************************************






**** BIPOLAR JUNCTION TRANSISTORS


NAME         q1        
MODEL        bc107     
IB           1.79E-05 
IC           4.18E-03 
VBE          6.50E-01 
VBC         -4.92E+00 
VCE          5.57E+00 
BETADC       2.34E+02 
GM           1.61E-01 
RPI          1.65E+03 
RX           0.00E+00 
RO           6.20E+03 
CBE          1.01E-10 
CBC          2.77E-12 
CJS          0.00E+00 
BETAAC       2.66E+02 
CBX/CBX2     0.00E+00 
FT/FT2       2.48E+08 


**** 06/11/25 02:28:47 ******* PSpice Lite (April 2011) ******* ID# 10813 ****

 Pseudostatystyka RC


 ****     SMALL SIGNAL BIAS SOLUTION       TEMPERATURE =   27.000 DEG C

                      MONTE CARLO PASS 33

******************************************************************************



 NODE   VOLTAGE     NODE   VOLTAGE     NODE   VOLTAGE     NODE   VOLTAGE


(    b)    3.2575  (    c)    9.7947  (    e)    2.6135  (   in)    0.0000      

(  out)    0.0000  (  vcc)   15.0000  




    VOLTAGE SOURCE CURRENTS
    NAME         CURRENT

    vcc         -3.613E-03
    vin          0.000E+00

    TOTAL POWER DISSIPATION   5.42E-02  WATTS


**** 06/11/25 02:28:47 ******* PSpice Lite (April 2011) ******* ID# 10813 ****

 Pseudostatystyka RC


 ****     OPERATING POINT INFORMATION      TEMPERATURE =   27.000 DEG C

                      MONTE CARLO PASS 33

******************************************************************************






**** BIPOLAR JUNCTION TRANSISTORS


NAME         q1        
MODEL        bc107     
IB           1.44E-05 
IC           3.47E-03 
VBE          6.44E-01 
VBC         -6.54E+00 
VCE          7.18E+00 
BETADC       2.41E+02 
GM           1.34E-01 
RPI          2.06E+03 
RX           0.00E+00 
RO           7.94E+03 
CBE          8.84E-11 
CBC          2.52E-12 
CJS          0.00E+00 
BETAAC       2.75E+02 
CBX/CBX2     0.00E+00 
FT/FT2       2.34E+08 


**** 06/11/25 02:28:47 ******* PSpice Lite (April 2011) ******* ID# 10813 ****

 Pseudostatystyka RC


 ****     SMALL SIGNAL BIAS SOLUTION       TEMPERATURE =   27.000 DEG C

                      MONTE CARLO PASS 34

******************************************************************************



 NODE   VOLTAGE     NODE   VOLTAGE     NODE   VOLTAGE     NODE   VOLTAGE


(    b)    3.5236  (    c)    9.2715  (    e)    2.8763  (   in)    0.0000      

(  out)    0.0000  (  vcc)   15.0000  




    VOLTAGE SOURCE CURRENTS
    NAME         CURRENT

    vcc         -3.971E-03
    vin          0.000E+00

    TOTAL POWER DISSIPATION   5.96E-02  WATTS


**** 06/11/25 02:28:47 ******* PSpice Lite (April 2011) ******* ID# 10813 ****

 Pseudostatystyka RC


 ****     OPERATING POINT INFORMATION      TEMPERATURE =   27.000 DEG C

                      MONTE CARLO PASS 34

******************************************************************************






**** BIPOLAR JUNCTION TRANSISTORS


NAME         q1        
MODEL        bc107     
IB           1.61E-05 
IC           3.82E-03 
VBE          6.47E-01 
VBC         -5.75E+00 
VCE          6.40E+00 
BETADC       2.38E+02 
GM           1.47E-01 
RPI          1.84E+03 
RX           0.00E+00 
RO           7.01E+03 
CBE          9.44E-11 
CBC          2.63E-12 
CJS          0.00E+00 
BETAAC       2.71E+02 
CBX/CBX2     0.00E+00 
FT/FT2       2.41E+08 


**** 06/11/25 02:28:47 ******* PSpice Lite (April 2011) ******* ID# 10813 ****

 Pseudostatystyka RC


 ****     SMALL SIGNAL BIAS SOLUTION       TEMPERATURE =   27.000 DEG C

                      MONTE CARLO PASS 35

******************************************************************************



 NODE   VOLTAGE     NODE   VOLTAGE     NODE   VOLTAGE     NODE   VOLTAGE


(    b)    3.4691  (    c)    9.3786  (    e)    2.8225  (   in)    0.0000      

(  out)    0.0000  (  vcc)   15.0000  




    VOLTAGE SOURCE CURRENTS
    NAME         CURRENT

    vcc         -3.898E-03
    vin          0.000E+00

    TOTAL POWER DISSIPATION   5.85E-02  WATTS


**** 06/11/25 02:28:47 ******* PSpice Lite (April 2011) ******* ID# 10813 ****

 Pseudostatystyka RC


 ****     OPERATING POINT INFORMATION      TEMPERATURE =   27.000 DEG C

                      MONTE CARLO PASS 35

******************************************************************************






**** BIPOLAR JUNCTION TRANSISTORS


NAME         q1        
MODEL        bc107     
IB           1.57E-05 
IC           3.75E-03 
VBE          6.47E-01 
VBC         -5.91E+00 
VCE          6.56E+00 
BETADC       2.38E+02 
GM           1.44E-01 
RPI          1.88E+03 
RX           0.00E+00 
RO           7.19E+03 
CBE          9.32E-11 
CBC          2.61E-12 
CJS          0.00E+00 
BETAAC       2.72E+02 
CBX/CBX2     0.00E+00 
FT/FT2       2.40E+08 


**** 06/11/25 02:28:47 ******* PSpice Lite (April 2011) ******* ID# 10813 ****

 Pseudostatystyka RC


 ****     SMALL SIGNAL BIAS SOLUTION       TEMPERATURE =   27.000 DEG C

                      MONTE CARLO PASS 36

******************************************************************************



 NODE   VOLTAGE     NODE   VOLTAGE     NODE   VOLTAGE     NODE   VOLTAGE


(    b)    3.4850  (    c)    9.3474  (    e)    2.8382  (   in)    0.0000      

(  out)    0.0000  (  vcc)   15.0000  




    VOLTAGE SOURCE CURRENTS
    NAME         CURRENT

    vcc         -3.921E-03
    vin          0.000E+00

    TOTAL POWER DISSIPATION   5.88E-02  WATTS


**** 06/11/25 02:28:47 ******* PSpice Lite (April 2011) ******* ID# 10813 ****

 Pseudostatystyka RC


 ****     OPERATING POINT INFORMATION      TEMPERATURE =   27.000 DEG C

                      MONTE CARLO PASS 36

******************************************************************************






**** BIPOLAR JUNCTION TRANSISTORS


NAME         q1        
MODEL        bc107     
IB           1.58E-05 
IC           3.77E-03 
VBE          6.47E-01 
VBC         -5.86E+00 
VCE          6.51E+00 
BETADC       2.38E+02 
GM           1.45E-01 
RPI          1.87E+03 
RX           0.00E+00 
RO           7.13E+03 
CBE          9.35E-11 
CBC          2.61E-12 
CJS          0.00E+00 
BETAAC       2.72E+02 
CBX/CBX2     0.00E+00 
FT/FT2       2.40E+08 


**** 06/11/25 02:28:47 ******* PSpice Lite (April 2011) ******* ID# 10813 ****

 Pseudostatystyka RC


 ****     SMALL SIGNAL BIAS SOLUTION       TEMPERATURE =   27.000 DEG C

                      MONTE CARLO PASS 37

******************************************************************************



 NODE   VOLTAGE     NODE   VOLTAGE     NODE   VOLTAGE     NODE   VOLTAGE


(    b)    3.7096  (    c)    8.9055  (    e)    3.0602  (   in)    0.0000      

(  out)    0.0000  (  vcc)   15.0000  




    VOLTAGE SOURCE CURRENTS
    NAME         CURRENT

    vcc         -4.206E-03
    vin          0.000E+00

    TOTAL POWER DISSIPATION   6.31E-02  WATTS


**** 06/11/25 02:28:47 ******* PSpice Lite (April 2011) ******* ID# 10813 ****

 Pseudostatystyka RC


 ****     OPERATING POINT INFORMATION      TEMPERATURE =   27.000 DEG C

                      MONTE CARLO PASS 37

******************************************************************************






**** BIPOLAR JUNCTION TRANSISTORS


NAME         q1        
MODEL        bc107     
IB           1.73E-05 
IC           4.06E-03 
VBE          6.49E-01 
VBC         -5.20E+00 
VCE          5.85E+00 
BETADC       2.35E+02 
GM           1.56E-01 
RPI          1.71E+03 
RX           0.00E+00 
RO           6.45E+03 
CBE          9.86E-11 
CBC          2.72E-12 
CJS          0.00E+00 
BETAAC       2.68E+02 
CBX/CBX2     0.00E+00 
FT/FT2       2.46E+08 


**** 06/11/25 02:28:47 ******* PSpice Lite (April 2011) ******* ID# 10813 ****

 Pseudostatystyka RC


 ****     SMALL SIGNAL BIAS SOLUTION       TEMPERATURE =   27.000 DEG C

                      MONTE CARLO PASS 38

******************************************************************************



 NODE   VOLTAGE     NODE   VOLTAGE     NODE   VOLTAGE     NODE   VOLTAGE


(    b)    3.3511  (    c)    9.6106  (    e)    2.7059  (   in)    0.0000      

(  out)    0.0000  (  vcc)   15.0000  




    VOLTAGE SOURCE CURRENTS
    NAME         CURRENT

    vcc         -3.733E-03
    vin          0.000E+00

    TOTAL POWER DISSIPATION   5.60E-02  WATTS


**** 06/11/25 02:28:47 ******* PSpice Lite (April 2011) ******* ID# 10813 ****

 Pseudostatystyka RC


 ****     OPERATING POINT INFORMATION      TEMPERATURE =   27.000 DEG C

                      MONTE CARLO PASS 38

******************************************************************************






**** BIPOLAR JUNCTION TRANSISTORS


NAME         q1        
MODEL        bc107     
IB           1.50E-05 
IC           3.59E-03 
VBE          6.45E-01 
VBC         -6.26E+00 
VCE          6.90E+00 
BETADC       2.40E+02 
GM           1.38E-01 
RPI          1.98E+03 
RX           0.00E+00 
RO           7.59E+03 
CBE          9.05E-11 
CBC          2.56E-12 
CJS          0.00E+00 
BETAAC       2.74E+02 
CBX/CBX2     0.00E+00 
FT/FT2       2.37E+08 


**** 06/11/25 02:28:47 ******* PSpice Lite (April 2011) ******* ID# 10813 ****

 Pseudostatystyka RC


 ****     SMALL SIGNAL BIAS SOLUTION       TEMPERATURE =   27.000 DEG C

                      MONTE CARLO PASS 39

******************************************************************************



 NODE   VOLTAGE     NODE   VOLTAGE     NODE   VOLTAGE     NODE   VOLTAGE


(    b)    3.7000  (    c)    8.9244  (    e)    3.0507  (   in)    0.0000      

(  out)    0.0000  (  vcc)   15.0000  




    VOLTAGE SOURCE CURRENTS
    NAME         CURRENT

    vcc         -4.193E-03
    vin          0.000E+00

    TOTAL POWER DISSIPATION   6.29E-02  WATTS


**** 06/11/25 02:28:47 ******* PSpice Lite (April 2011) ******* ID# 10813 ****

 Pseudostatystyka RC


 ****     OPERATING POINT INFORMATION      TEMPERATURE =   27.000 DEG C

                      MONTE CARLO PASS 39

******************************************************************************






**** BIPOLAR JUNCTION TRANSISTORS


NAME         q1        
MODEL        bc107     
IB           1.72E-05 
IC           4.05E-03 
VBE          6.49E-01 
VBC         -5.22E+00 
VCE          5.87E+00 
BETADC       2.35E+02 
GM           1.56E-01 
RPI          1.72E+03 
RX           0.00E+00 
RO           6.48E+03 
CBE          9.84E-11 
CBC          2.72E-12 
CJS          0.00E+00 
BETAAC       2.68E+02 
CBX/CBX2     0.00E+00 
FT/FT2       2.45E+08 


**** 06/11/25 02:28:47 ******* PSpice Lite (April 2011) ******* ID# 10813 ****

 Pseudostatystyka RC


 ****     SMALL SIGNAL BIAS SOLUTION       TEMPERATURE =   27.000 DEG C

                      MONTE CARLO PASS 40

******************************************************************************



 NODE   VOLTAGE     NODE   VOLTAGE     NODE   VOLTAGE     NODE   VOLTAGE


(    b)    3.3854  (    c)    9.5432  (    e)    2.7398  (   in)    0.0000      

(  out)    0.0000  (  vcc)   15.0000  




    VOLTAGE SOURCE CURRENTS
    NAME         CURRENT

    vcc         -3.776E-03
    vin          0.000E+00

    TOTAL POWER DISSIPATION   5.66E-02  WATTS


**** 06/11/25 02:28:47 ******* PSpice Lite (April 2011) ******* ID# 10813 ****

 Pseudostatystyka RC


 ****     OPERATING POINT INFORMATION      TEMPERATURE =   27.000 DEG C

                      MONTE CARLO PASS 40

******************************************************************************






**** BIPOLAR JUNCTION TRANSISTORS


NAME         q1        
MODEL        bc107     
IB           1.52E-05 
IC           3.64E-03 
VBE          6.46E-01 
VBC         -6.16E+00 
VCE          6.80E+00 
BETADC       2.39E+02 
GM           1.40E-01 
RPI          1.95E+03 
RX           0.00E+00 
RO           7.47E+03 
CBE          9.13E-11 
CBC          2.57E-12 
CJS          0.00E+00 
BETAAC       2.73E+02 
CBX/CBX2     0.00E+00 
FT/FT2       2.38E+08 


**** 06/11/25 02:28:47 ******* PSpice Lite (April 2011) ******* ID# 10813 ****

 Pseudostatystyka RC


 ****     SMALL SIGNAL BIAS SOLUTION       TEMPERATURE =   27.000 DEG C

                      MONTE CARLO PASS 41

******************************************************************************



 NODE   VOLTAGE     NODE   VOLTAGE     NODE   VOLTAGE     NODE   VOLTAGE


(    b)    3.3965  (    c)    9.5214  (    e)    2.7508  (   in)    0.0000      

(  out)    0.0000  (  vcc)   15.0000  




    VOLTAGE SOURCE CURRENTS
    NAME         CURRENT

    vcc         -3.791E-03
    vin          0.000E+00

    TOTAL POWER DISSIPATION   5.69E-02  WATTS


**** 06/11/25 02:28:47 ******* PSpice Lite (April 2011) ******* ID# 10813 ****

 Pseudostatystyka RC


 ****     OPERATING POINT INFORMATION      TEMPERATURE =   27.000 DEG C

                      MONTE CARLO PASS 41

******************************************************************************






**** BIPOLAR JUNCTION TRANSISTORS


NAME         q1        
MODEL        bc107     
IB           1.53E-05 
IC           3.65E-03 
VBE          6.46E-01 
VBC         -6.12E+00 
VCE          6.77E+00 
BETADC       2.39E+02 
GM           1.41E-01 
RPI          1.94E+03 
RX           0.00E+00 
RO           7.43E+03 
CBE          9.15E-11 
CBC          2.57E-12 
CJS          0.00E+00 
BETAAC       2.73E+02 
CBX/CBX2     0.00E+00 
FT/FT2       2.38E+08 


**** 06/11/25 02:28:47 ******* PSpice Lite (April 2011) ******* ID# 10813 ****

 Pseudostatystyka RC


 ****     SMALL SIGNAL BIAS SOLUTION       TEMPERATURE =   27.000 DEG C

                      MONTE CARLO PASS 42

******************************************************************************



 NODE   VOLTAGE     NODE   VOLTAGE     NODE   VOLTAGE     NODE   VOLTAGE


(    b)    3.2614  (    c)    9.7870  (    e)    2.6173  (   in)    0.0000      

(  out)    0.0000  (  vcc)   15.0000  




    VOLTAGE SOURCE CURRENTS
    NAME         CURRENT

    vcc         -3.612E-03
    vin          0.000E+00

    TOTAL POWER DISSIPATION   5.42E-02  WATTS


**** 06/11/25 02:28:47 ******* PSpice Lite (April 2011) ******* ID# 10813 ****

 Pseudostatystyka RC


 ****     OPERATING POINT INFORMATION      TEMPERATURE =   27.000 DEG C

                      MONTE CARLO PASS 42

******************************************************************************






**** BIPOLAR JUNCTION TRANSISTORS


NAME         q1        
MODEL        bc107     
IB           1.44E-05 
IC           3.48E-03 
VBE          6.44E-01 
VBC         -6.53E+00 
VCE          7.17E+00 
BETADC       2.41E+02 
GM           1.34E-01 
RPI          2.06E+03 
RX           0.00E+00 
RO           7.93E+03 
CBE          8.85E-11 
CBC          2.52E-12 
CJS          0.00E+00 
BETAAC       2.75E+02 
CBX/CBX2     0.00E+00 
FT/FT2       2.34E+08 


**** 06/11/25 02:28:47 ******* PSpice Lite (April 2011) ******* ID# 10813 ****

 Pseudostatystyka RC


 ****     SMALL SIGNAL BIAS SOLUTION       TEMPERATURE =   27.000 DEG C

                      MONTE CARLO PASS 43

******************************************************************************



 NODE   VOLTAGE     NODE   VOLTAGE     NODE   VOLTAGE     NODE   VOLTAGE


(    b)    3.7045  (    c)    8.9157  (    e)    3.0551  (   in)    0.0000      

(  out)    0.0000  (  vcc)   15.0000  




    VOLTAGE SOURCE CURRENTS
    NAME         CURRENT

    vcc         -4.205E-03
    vin          0.000E+00

    TOTAL POWER DISSIPATION   6.31E-02  WATTS


**** 06/11/25 02:28:47 ******* PSpice Lite (April 2011) ******* ID# 10813 ****

 Pseudostatystyka RC


 ****     OPERATING POINT INFORMATION      TEMPERATURE =   27.000 DEG C

                      MONTE CARLO PASS 43

******************************************************************************






**** BIPOLAR JUNCTION TRANSISTORS


NAME         q1        
MODEL        bc107     
IB           1.72E-05 
IC           4.06E-03 
VBE          6.49E-01 
VBC         -5.21E+00 
VCE          5.86E+00 
BETADC       2.35E+02 
GM           1.56E-01 
RPI          1.71E+03 
RX           0.00E+00 
RO           6.47E+03 
CBE          9.85E-11 
CBC          2.72E-12 
CJS          0.00E+00 
BETAAC       2.68E+02 
CBX/CBX2     0.00E+00 
FT/FT2       2.46E+08 


**** 06/11/25 02:28:47 ******* PSpice Lite (April 2011) ******* ID# 10813 ****

 Pseudostatystyka RC


 ****     SMALL SIGNAL BIAS SOLUTION       TEMPERATURE =   27.000 DEG C

                      MONTE CARLO PASS 44

******************************************************************************



 NODE   VOLTAGE     NODE   VOLTAGE     NODE   VOLTAGE     NODE   VOLTAGE


(    b)    3.5161  (    c)    9.2862  (    e)    2.8689  (   in)    0.0000      

(  out)    0.0000  (  vcc)   15.0000  




    VOLTAGE SOURCE CURRENTS
    NAME         CURRENT

    vcc         -3.963E-03
    vin          0.000E+00

    TOTAL POWER DISSIPATION   5.95E-02  WATTS


**** 06/11/25 02:28:47 ******* PSpice Lite (April 2011) ******* ID# 10813 ****

 Pseudostatystyka RC


 ****     OPERATING POINT INFORMATION      TEMPERATURE =   27.000 DEG C

                      MONTE CARLO PASS 44

******************************************************************************






**** BIPOLAR JUNCTION TRANSISTORS


NAME         q1        
MODEL        bc107     
IB           1.60E-05 
IC           3.81E-03 
VBE          6.47E-01 
VBC         -5.77E+00 
VCE          6.42E+00 
BETADC       2.38E+02 
GM           1.47E-01 
RPI          1.85E+03 
RX           0.00E+00 
RO           7.03E+03 
CBE          9.42E-11 
CBC          2.63E-12 
CJS          0.00E+00 
BETAAC       2.71E+02 
CBX/CBX2     0.00E+00 
FT/FT2       2.41E+08 


**** 06/11/25 02:28:47 ******* PSpice Lite (April 2011) ******* ID# 10813 ****

 Pseudostatystyka RC


 ****     SMALL SIGNAL BIAS SOLUTION       TEMPERATURE =   27.000 DEG C

                      MONTE CARLO PASS 45

******************************************************************************



 NODE   VOLTAGE     NODE   VOLTAGE     NODE   VOLTAGE     NODE   VOLTAGE


(    b)    3.3950  (    c)    9.5243  (    e)    2.7493  (   in)    0.0000      

(  out)    0.0000  (  vcc)   15.0000  




    VOLTAGE SOURCE CURRENTS
    NAME         CURRENT

    vcc         -3.797E-03
    vin          0.000E+00

    TOTAL POWER DISSIPATION   5.70E-02  WATTS


**** 06/11/25 02:28:47 ******* PSpice Lite (April 2011) ******* ID# 10813 ****

 Pseudostatystyka RC


 ****     OPERATING POINT INFORMATION      TEMPERATURE =   27.000 DEG C

                      MONTE CARLO PASS 45

******************************************************************************






**** BIPOLAR JUNCTION TRANSISTORS


NAME         q1        
MODEL        bc107     
IB           1.53E-05 
IC           3.65E-03 
VBE          6.46E-01 
VBC         -6.13E+00 
VCE          6.78E+00 
BETADC       2.39E+02 
GM           1.41E-01 
RPI          1.94E+03 
RX           0.00E+00 
RO           7.44E+03 
CBE          9.15E-11 
CBC          2.57E-12 
CJS          0.00E+00 
BETAAC       2.73E+02 
CBX/CBX2     0.00E+00 
FT/FT2       2.38E+08 


**** 06/11/25 02:28:47 ******* PSpice Lite (April 2011) ******* ID# 10813 ****

 Pseudostatystyka RC


 ****     SMALL SIGNAL BIAS SOLUTION       TEMPERATURE =   27.000 DEG C

                      MONTE CARLO PASS 46

******************************************************************************



 NODE   VOLTAGE     NODE   VOLTAGE     NODE   VOLTAGE     NODE   VOLTAGE


(    b)    3.3639  (    c)    9.5854  (    e)    2.7186  (   in)    0.0000      

(  out)    0.0000  (  vcc)   15.0000  




    VOLTAGE SOURCE CURRENTS
    NAME         CURRENT

    vcc         -3.739E-03
    vin          0.000E+00

    TOTAL POWER DISSIPATION   5.61E-02  WATTS


**** 06/11/25 02:28:47 ******* PSpice Lite (April 2011) ******* ID# 10813 ****

 Pseudostatystyka RC


 ****     OPERATING POINT INFORMATION      TEMPERATURE =   27.000 DEG C

                      MONTE CARLO PASS 46

******************************************************************************






**** BIPOLAR JUNCTION TRANSISTORS


NAME         q1        
MODEL        bc107     
IB           1.51E-05 
IC           3.61E-03 
VBE          6.45E-01 
VBC         -6.22E+00 
VCE          6.87E+00 
BETADC       2.40E+02 
GM           1.39E-01 
RPI          1.97E+03 
RX           0.00E+00 
RO           7.55E+03 
CBE          9.08E-11 
CBC          2.56E-12 
CJS          0.00E+00 
BETAAC       2.74E+02 
CBX/CBX2     0.00E+00 
FT/FT2       2.37E+08 


**** 06/11/25 02:28:47 ******* PSpice Lite (April 2011) ******* ID# 10813 ****

 Pseudostatystyka RC


 ****     SMALL SIGNAL BIAS SOLUTION       TEMPERATURE =   27.000 DEG C

                      MONTE CARLO PASS 47

******************************************************************************



 NODE   VOLTAGE     NODE   VOLTAGE     NODE   VOLTAGE     NODE   VOLTAGE


(    b)    3.1043  (    c)   10.0960  (    e)    2.4622  (   in)    0.0000      

(  out)    0.0000  (  vcc)   15.0000  




    VOLTAGE SOURCE CURRENTS
    NAME         CURRENT

    vcc         -3.410E-03
    vin          0.000E+00

    TOTAL POWER DISSIPATION   5.11E-02  WATTS


**** 06/11/25 02:28:47 ******* PSpice Lite (April 2011) ******* ID# 10813 ****

 Pseudostatystyka RC


 ****     OPERATING POINT INFORMATION      TEMPERATURE =   27.000 DEG C

                      MONTE CARLO PASS 47

******************************************************************************






**** BIPOLAR JUNCTION TRANSISTORS


NAME         q1        
MODEL        bc107     
IB           1.35E-05 
IC           3.27E-03 
VBE          6.42E-01 
VBC         -6.99E+00 
VCE          7.63E+00 
BETADC       2.43E+02 
GM           1.26E-01 
RPI          2.20E+03 
RX           0.00E+00 
RO           8.57E+03 
CBE          8.49E-11 
CBC          2.46E-12 
CJS          0.00E+00 
BETAAC       2.78E+02 
CBX/CBX2     0.00E+00 
FT/FT2       2.29E+08 


**** 06/11/25 02:28:47 ******* PSpice Lite (April 2011) ******* ID# 10813 ****

 Pseudostatystyka RC


 ****     SMALL SIGNAL BIAS SOLUTION       TEMPERATURE =   27.000 DEG C

                      MONTE CARLO PASS 48

******************************************************************************



 NODE   VOLTAGE     NODE   VOLTAGE     NODE   VOLTAGE     NODE   VOLTAGE


(    b)    3.3699  (    c)    9.5738  (    e)    2.7244  (   in)    0.0000      

(  out)    0.0000  (  vcc)   15.0000  




    VOLTAGE SOURCE CURRENTS
    NAME         CURRENT

    vcc         -3.770E-03
    vin          0.000E+00

    TOTAL POWER DISSIPATION   5.65E-02  WATTS


**** 06/11/25 02:28:47 ******* PSpice Lite (April 2011) ******* ID# 10813 ****

 Pseudostatystyka RC


 ****     OPERATING POINT INFORMATION      TEMPERATURE =   27.000 DEG C

                      MONTE CARLO PASS 48

******************************************************************************






**** BIPOLAR JUNCTION TRANSISTORS


NAME         q1        
MODEL        bc107     
IB           1.51E-05 
IC           3.62E-03 
VBE          6.45E-01 
VBC         -6.20E+00 
VCE          6.85E+00 
BETADC       2.40E+02 
GM           1.39E-01 
RPI          1.96E+03 
RX           0.00E+00 
RO           7.53E+03 
CBE          9.09E-11 
CBC          2.56E-12 
CJS          0.00E+00 
BETAAC       2.74E+02 
CBX/CBX2     0.00E+00 
FT/FT2       2.37E+08 


**** 06/11/25 02:28:47 ******* PSpice Lite (April 2011) ******* ID# 10813 ****

 Pseudostatystyka RC


 ****     SMALL SIGNAL BIAS SOLUTION       TEMPERATURE =   27.000 DEG C

                      MONTE CARLO PASS 49

******************************************************************************



 NODE   VOLTAGE     NODE   VOLTAGE     NODE   VOLTAGE     NODE   VOLTAGE


(    b)    3.5433  (    c)    9.2326  (    e)    2.8958  (   in)    0.0000      

(  out)    0.0000  (  vcc)   15.0000  




    VOLTAGE SOURCE CURRENTS
    NAME         CURRENT

    vcc         -3.997E-03
    vin          0.000E+00

    TOTAL POWER DISSIPATION   5.99E-02  WATTS


**** 06/11/25 02:28:47 ******* PSpice Lite (April 2011) ******* ID# 10813 ****

 Pseudostatystyka RC


 ****     OPERATING POINT INFORMATION      TEMPERATURE =   27.000 DEG C

                      MONTE CARLO PASS 49

******************************************************************************






**** BIPOLAR JUNCTION TRANSISTORS


NAME         q1        
MODEL        bc107     
IB           1.62E-05 
IC           3.84E-03 
VBE          6.48E-01 
VBC         -5.69E+00 
VCE          6.34E+00 
BETADC       2.37E+02 
GM           1.48E-01 
RPI          1.83E+03 
RX           0.00E+00 
RO           6.95E+03 
CBE          9.49E-11 
CBC          2.64E-12 
CJS          0.00E+00 
BETAAC       2.71E+02 
CBX/CBX2     0.00E+00 
FT/FT2       2.42E+08 


**** 06/11/25 02:28:47 ******* PSpice Lite (April 2011) ******* ID# 10813 ****

 Pseudostatystyka RC


 ****     SMALL SIGNAL BIAS SOLUTION       TEMPERATURE =   27.000 DEG C

                      MONTE CARLO PASS 50

******************************************************************************



 NODE   VOLTAGE     NODE   VOLTAGE     NODE   VOLTAGE     NODE   VOLTAGE


(    b)    3.3886  (    c)    9.5369  (    e)    2.7430  (   in)    0.0000      

(  out)    0.0000  (  vcc)   15.0000  




    VOLTAGE SOURCE CURRENTS
    NAME         CURRENT

    vcc         -3.781E-03
    vin          0.000E+00

    TOTAL POWER DISSIPATION   5.67E-02  WATTS


**** 06/11/25 02:28:47 ******* PSpice Lite (April 2011) ******* ID# 10813 ****

 Pseudostatystyka RC


 ****     OPERATING POINT INFORMATION      TEMPERATURE =   27.000 DEG C

                      MONTE CARLO PASS 50

******************************************************************************






**** BIPOLAR JUNCTION TRANSISTORS


NAME         q1        
MODEL        bc107     
IB           1.52E-05 
IC           3.64E-03 
VBE          6.46E-01 
VBC         -6.15E+00 
VCE          6.79E+00 
BETADC       2.39E+02 
GM           1.40E-01 
RPI          1.95E+03 
RX           0.00E+00 
RO           7.46E+03 
CBE          9.14E-11 
CBC          2.57E-12 
CJS          0.00E+00 
BETAAC       2.73E+02 
CBX/CBX2     0.00E+00 
FT/FT2       2.38E+08 


**** 06/11/25 02:28:47 ******* PSpice Lite (April 2011) ******* ID# 10813 ****

 Pseudostatystyka RC


 ****     SMALL SIGNAL BIAS SOLUTION       TEMPERATURE =   27.000 DEG C

                      MONTE CARLO PASS 51

******************************************************************************



 NODE   VOLTAGE     NODE   VOLTAGE     NODE   VOLTAGE     NODE   VOLTAGE


(    b)    3.1801  (    c)    9.9468  (    e)    2.5370  (   in)    0.0000      

(  out)    0.0000  (  vcc)   15.0000  




    VOLTAGE SOURCE CURRENTS
    NAME         CURRENT

    vcc         -3.501E-03
    vin          0.000E+00

    TOTAL POWER DISSIPATION   5.25E-02  WATTS


**** 06/11/25 02:28:47 ******* PSpice Lite (April 2011) ******* ID# 10813 ****

 Pseudostatystyka RC


 ****     OPERATING POINT INFORMATION      TEMPERATURE =   27.000 DEG C

                      MONTE CARLO PASS 51

******************************************************************************






**** BIPOLAR JUNCTION TRANSISTORS


NAME         q1        
MODEL        bc107     
IB           1.39E-05 
IC           3.37E-03 
VBE          6.43E-01 
VBC         -6.77E+00 
VCE          7.41E+00 
BETADC       2.42E+02 
GM           1.30E-01 
RPI          2.13E+03 
RX           0.00E+00 
RO           8.25E+03 
CBE          8.66E-11 
CBC          2.49E-12 
CJS          0.00E+00 
BETAAC       2.76E+02 
CBX/CBX2     0.00E+00 
FT/FT2       2.32E+08 


**** 06/11/25 02:28:47 ******* PSpice Lite (April 2011) ******* ID# 10813 ****

 Pseudostatystyka RC


 ****     SMALL SIGNAL BIAS SOLUTION       TEMPERATURE =   27.000 DEG C

                      MONTE CARLO PASS 52

******************************************************************************



 NODE   VOLTAGE     NODE   VOLTAGE     NODE   VOLTAGE     NODE   VOLTAGE


(    b)    3.4862  (    c)    9.3450  (    e)    2.8394  (   in)    0.0000      

(  out)    0.0000  (  vcc)   15.0000  




    VOLTAGE SOURCE CURRENTS
    NAME         CURRENT

    vcc         -3.924E-03
    vin          0.000E+00

    TOTAL POWER DISSIPATION   5.89E-02  WATTS


**** 06/11/25 02:28:47 ******* PSpice Lite (April 2011) ******* ID# 10813 ****

 Pseudostatystyka RC


 ****     OPERATING POINT INFORMATION      TEMPERATURE =   27.000 DEG C

                      MONTE CARLO PASS 52

******************************************************************************






**** BIPOLAR JUNCTION TRANSISTORS


NAME         q1        
MODEL        bc107     
IB           1.58E-05 
IC           3.77E-03 
VBE          6.47E-01 
VBC         -5.86E+00 
VCE          6.51E+00 
BETADC       2.38E+02 
GM           1.45E-01 
RPI          1.87E+03 
RX           0.00E+00 
RO           7.13E+03 
CBE          9.36E-11 
CBC          2.61E-12 
CJS          0.00E+00 
BETAAC       2.72E+02 
CBX/CBX2     0.00E+00 
FT/FT2       2.40E+08 


**** 06/11/25 02:28:47 ******* PSpice Lite (April 2011) ******* ID# 10813 ****

 Pseudostatystyka RC


 ****     SMALL SIGNAL BIAS SOLUTION       TEMPERATURE =   27.000 DEG C

                      MONTE CARLO PASS 53

******************************************************************************



 NODE   VOLTAGE     NODE   VOLTAGE     NODE   VOLTAGE     NODE   VOLTAGE


(    b)    3.6533  (    c)    9.0163  (    e)    3.0045  (   in)    0.0000      

(  out)    0.0000  (  vcc)   15.0000  




    VOLTAGE SOURCE CURRENTS
    NAME         CURRENT

    vcc         -4.133E-03
    vin          0.000E+00

    TOTAL POWER DISSIPATION   6.20E-02  WATTS


**** 06/11/25 02:28:47 ******* PSpice Lite (April 2011) ******* ID# 10813 ****

 Pseudostatystyka RC


 ****     OPERATING POINT INFORMATION      TEMPERATURE =   27.000 DEG C

                      MONTE CARLO PASS 53

******************************************************************************






**** BIPOLAR JUNCTION TRANSISTORS


NAME         q1        
MODEL        bc107     
IB           1.69E-05 
IC           3.99E-03 
VBE          6.49E-01 
VBC         -5.36E+00 
VCE          6.01E+00 
BETADC       2.36E+02 
GM           1.54E-01 
RPI          1.75E+03 
RX           0.00E+00 
RO           6.61E+03 
CBE          9.73E-11 
CBC          2.69E-12 
CJS          0.00E+00 
BETAAC       2.69E+02 
CBX/CBX2     0.00E+00 
FT/FT2       2.44E+08 


**** 06/11/25 02:28:47 ******* PSpice Lite (April 2011) ******* ID# 10813 ****

 Pseudostatystyka RC


 ****     SMALL SIGNAL BIAS SOLUTION       TEMPERATURE =   27.000 DEG C

                      MONTE CARLO PASS 54

******************************************************************************



 NODE   VOLTAGE     NODE   VOLTAGE     NODE   VOLTAGE     NODE   VOLTAGE


(    b)    3.1460  (    c)   10.0140  (    e)    2.5033  (   in)    0.0000      

(  out)    0.0000  (  vcc)   15.0000  




    VOLTAGE SOURCE CURRENTS
    NAME         CURRENT

    vcc         -3.460E-03
    vin          0.000E+00

    TOTAL POWER DISSIPATION   5.19E-02  WATTS


**** 06/11/25 02:28:47 ******* PSpice Lite (April 2011) ******* ID# 10813 ****

 Pseudostatystyka RC


 ****     OPERATING POINT INFORMATION      TEMPERATURE =   27.000 DEG C

                      MONTE CARLO PASS 54

******************************************************************************






**** BIPOLAR JUNCTION TRANSISTORS


NAME         q1        
MODEL        bc107     
IB           1.37E-05 
IC           3.32E-03 
VBE          6.43E-01 
VBC         -6.87E+00 
VCE          7.51E+00 
BETADC       2.42E+02 
GM           1.28E-01 
RPI          2.16E+03 
RX           0.00E+00 
RO           8.39E+03 
CBE          8.59E-11 
CBC          2.47E-12 
CJS          0.00E+00 
BETAAC       2.77E+02 
CBX/CBX2     0.00E+00 
FT/FT2       2.31E+08 


**** 06/11/25 02:28:47 ******* PSpice Lite (April 2011) ******* ID# 10813 ****

 Pseudostatystyka RC


 ****     SMALL SIGNAL BIAS SOLUTION       TEMPERATURE =   27.000 DEG C

                      MONTE CARLO PASS 55

******************************************************************************



 NODE   VOLTAGE     NODE   VOLTAGE     NODE   VOLTAGE     NODE   VOLTAGE


(    b)    3.1662  (    c)    9.9741  (    e)    2.5234  (   in)    0.0000      

(  out)    0.0000  (  vcc)   15.0000  




    VOLTAGE SOURCE CURRENTS
    NAME         CURRENT

    vcc         -3.488E-03
    vin          0.000E+00

    TOTAL POWER DISSIPATION   5.23E-02  WATTS


**** 06/11/25 02:28:47 ******* PSpice Lite (April 2011) ******* ID# 10813 ****

 Pseudostatystyka RC


 ****     OPERATING POINT INFORMATION      TEMPERATURE =   27.000 DEG C

                      MONTE CARLO PASS 55

******************************************************************************






**** BIPOLAR JUNCTION TRANSISTORS


NAME         q1        
MODEL        bc107     
IB           1.38E-05 
IC           3.35E-03 
VBE          6.43E-01 
VBC         -6.81E+00 
[...]
BETAAC       2.73E+02 
CBX/CBX2     0.00E+00 
FT/FT2       2.38E+08 


**** 06/11/25 02:28:47 ******* PSpice Lite (April 2011) ******* ID# 10813 ****

 Pseudostatystyka RC


 ****     SMALL SIGNAL BIAS SOLUTION       TEMPERATURE =   27.000 DEG C

                      MONTE CARLO PASS 92

******************************************************************************



 NODE   VOLTAGE     NODE   VOLTAGE     NODE   VOLTAGE     NODE   VOLTAGE


(    b)    3.3369  (    c)    9.6385  (    e)    2.6919  (   in)    0.0000      

(  out)    0.0000  (  vcc)   15.0000  




    VOLTAGE SOURCE CURRENTS
    NAME         CURRENT

    vcc         -3.711E-03
    vin          0.000E+00

    TOTAL POWER DISSIPATION   5.57E-02  WATTS


**** 06/11/25 02:28:47 ******* PSpice Lite (April 2011) ******* ID# 10813 ****

 Pseudostatystyka RC


 ****     OPERATING POINT INFORMATION      TEMPERATURE =   27.000 DEG C

                      MONTE CARLO PASS 92

******************************************************************************






**** BIPOLAR JUNCTION TRANSISTORS


NAME         q1        
MODEL        bc107     
IB           1.49E-05 
IC           3.57E-03 
VBE          6.45E-01 
VBC         -6.30E+00 
VCE          6.95E+00 
BETADC       2.40E+02 
GM           1.38E-01 
RPI          1.99E+03 
RX           0.00E+00 
RO           7.65E+03 
CBE          9.02E-11 
CBC          2.55E-12 
CJS          0.00E+00 
BETAAC       2.74E+02 
CBX/CBX2     0.00E+00 
FT/FT2       2.36E+08 


**** 06/11/25 02:28:47 ******* PSpice Lite (April 2011) ******* ID# 10813 ****

 Pseudostatystyka RC


 ****     SMALL SIGNAL BIAS SOLUTION       TEMPERATURE =   27.000 DEG C

                      MONTE CARLO PASS 93

******************************************************************************



 NODE   VOLTAGE     NODE   VOLTAGE     NODE   VOLTAGE     NODE   VOLTAGE


(    b)    3.6750  (    c)    8.9737  (    e)    3.0259  (   in)    0.0000      

(  out)    0.0000  (  vcc)   15.0000  




    VOLTAGE SOURCE CURRENTS
    NAME         CURRENT

    vcc         -4.169E-03
    vin          0.000E+00

    TOTAL POWER DISSIPATION   6.25E-02  WATTS


**** 06/11/25 02:28:47 ******* PSpice Lite (April 2011) ******* ID# 10813 ****

 Pseudostatystyka RC


 ****     OPERATING POINT INFORMATION      TEMPERATURE =   27.000 DEG C

                      MONTE CARLO PASS 93

******************************************************************************






**** BIPOLAR JUNCTION TRANSISTORS


NAME         q1        
MODEL        bc107     
IB           1.70E-05 
IC           4.02E-03 
VBE          6.49E-01 
VBC         -5.30E+00 
VCE          5.95E+00 
BETADC       2.36E+02 
GM           1.55E-01 
RPI          1.73E+03 
RX           0.00E+00 
RO           6.55E+03 
CBE          9.78E-11 
CBC          2.70E-12 
CJS          0.00E+00 
BETAAC       2.68E+02 
CBX/CBX2     0.00E+00 
FT/FT2       2.45E+08 


**** 06/11/25 02:28:47 ******* PSpice Lite (April 2011) ******* ID# 10813 ****

 Pseudostatystyka RC


 ****     SMALL SIGNAL BIAS SOLUTION       TEMPERATURE =   27.000 DEG C

                      MONTE CARLO PASS 94

******************************************************************************



 NODE   VOLTAGE     NODE   VOLTAGE     NODE   VOLTAGE     NODE   VOLTAGE


(    b)    3.2194  (    c)    9.8696  (    e)    2.5758  (   in)    0.0000      

(  out)    0.0000  (  vcc)   15.0000  




    VOLTAGE SOURCE CURRENTS
    NAME         CURRENT

    vcc         -3.561E-03
    vin          0.000E+00

    TOTAL POWER DISSIPATION   5.34E-02  WATTS


**** 06/11/25 02:28:47 ******* PSpice Lite (April 2011) ******* ID# 10813 ****

 Pseudostatystyka RC


 ****     OPERATING POINT INFORMATION      TEMPERATURE =   27.000 DEG C

                      MONTE CARLO PASS 94

******************************************************************************






**** BIPOLAR JUNCTION TRANSISTORS


NAME         q1        
MODEL        bc107     
IB           1.42E-05 
IC           3.42E-03 
VBE          6.44E-01 
VBC         -6.65E+00 
VCE          7.29E+00 
BETADC       2.41E+02 
GM           1.32E-01 
RPI          2.09E+03 
RX           0.00E+00 
RO           8.09E+03 
CBE          8.75E-11 
CBC          2.50E-12 
CJS          0.00E+00 
BETAAC       2.76E+02 
CBX/CBX2     0.00E+00 
FT/FT2       2.33E+08 


**** 06/11/25 02:28:47 ******* PSpice Lite (April 2011) ******* ID# 10813 ****

 Pseudostatystyka RC


 ****     SMALL SIGNAL BIAS SOLUTION       TEMPERATURE =   27.000 DEG C

                      MONTE CARLO PASS 95

******************************************************************************



 NODE   VOLTAGE     NODE   VOLTAGE     NODE   VOLTAGE     NODE   VOLTAGE


(    b)    3.6357  (    c)    9.0510  (    e)    2.9871  (   in)    0.0000      

(  out)    0.0000  (  vcc)   15.0000  




    VOLTAGE SOURCE CURRENTS
    NAME         CURRENT

    vcc         -4.105E-03
    vin          0.000E+00

    TOTAL POWER DISSIPATION   6.16E-02  WATTS


**** 06/11/25 02:28:47 ******* PSpice Lite (April 2011) ******* ID# 10813 ****

 Pseudostatystyka RC


 ****     OPERATING POINT INFORMATION      TEMPERATURE =   27.000 DEG C

                      MONTE CARLO PASS 95

******************************************************************************






**** BIPOLAR JUNCTION TRANSISTORS


NAME         q1        
MODEL        bc107     
IB           1.68E-05 
IC           3.97E-03 
VBE          6.49E-01 
VBC         -5.42E+00 
VCE          6.06E+00 
BETADC       2.36E+02 
GM           1.53E-01 
RPI          1.76E+03 
RX           0.00E+00 
RO           6.67E+03 
CBE          9.69E-11 
CBC          2.68E-12 
CJS          0.00E+00 
BETAAC       2.69E+02 
CBX/CBX2     0.00E+00 
FT/FT2       2.44E+08 


**** 06/11/25 02:28:47 ******* PSpice Lite (April 2011) ******* ID# 10813 ****

 Pseudostatystyka RC


 ****     SMALL SIGNAL BIAS SOLUTION       TEMPERATURE =   27.000 DEG C

                      MONTE CARLO PASS 96

******************************************************************************



 NODE   VOLTAGE     NODE   VOLTAGE     NODE   VOLTAGE     NODE   VOLTAGE


(    b)    3.3150  (    c)    9.6817  (    e)    2.6702  (   in)    0.0000      

(  out)    0.0000  (  vcc)   15.0000  




    VOLTAGE SOURCE CURRENTS
    NAME         CURRENT

    vcc         -3.682E-03
    vin          0.000E+00

    TOTAL POWER DISSIPATION   5.52E-02  WATTS


**** 06/11/25 02:28:47 ******* PSpice Lite (April 2011) ******* ID# 10813 ****

 Pseudostatystyka RC


 ****     OPERATING POINT INFORMATION      TEMPERATURE =   27.000 DEG C

                      MONTE CARLO PASS 96

******************************************************************************






**** BIPOLAR JUNCTION TRANSISTORS


NAME         q1        
MODEL        bc107     
IB           1.48E-05 
IC           3.55E-03 
VBE          6.45E-01 
VBC         -6.37E+00 
VCE          7.01E+00 
BETADC       2.40E+02 
GM           1.37E-01 
RPI          2.01E+03 
RX           0.00E+00 
RO           7.73E+03 
CBE          8.97E-11 
CBC          2.54E-12 
CJS          0.00E+00 
BETAAC       2.74E+02 
CBX/CBX2     0.00E+00 
FT/FT2       2.36E+08 


**** 06/11/25 02:28:47 ******* PSpice Lite (April 2011) ******* ID# 10813 ****

 Pseudostatystyka RC


 ****     SMALL SIGNAL BIAS SOLUTION       TEMPERATURE =   27.000 DEG C

                      MONTE CARLO PASS 97

******************************************************************************



 NODE   VOLTAGE     NODE   VOLTAGE     NODE   VOLTAGE     NODE   VOLTAGE


(    b)    3.6503  (    c)    9.0221  (    e)    3.0016  (   in)    0.0000      

(  out)    0.0000  (  vcc)   15.0000  




    VOLTAGE SOURCE CURRENTS
    NAME         CURRENT

    vcc         -4.129E-03
    vin          0.000E+00

    TOTAL POWER DISSIPATION   6.19E-02  WATTS


**** 06/11/25 02:28:47 ******* PSpice Lite (April 2011) ******* ID# 10813 ****

 Pseudostatystyka RC


 ****     OPERATING POINT INFORMATION      TEMPERATURE =   27.000 DEG C

                      MONTE CARLO PASS 97

******************************************************************************






**** BIPOLAR JUNCTION TRANSISTORS


NAME         q1        
MODEL        bc107     
IB           1.69E-05 
IC           3.99E-03 
VBE          6.49E-01 
VBC         -5.37E+00 
VCE          6.02E+00 
BETADC       2.36E+02 
GM           1.53E-01 
RPI          1.75E+03 
RX           0.00E+00 
RO           6.62E+03 
CBE          9.73E-11 
CBC          2.69E-12 
CJS          0.00E+00 
BETAAC       2.69E+02 
CBX/CBX2     0.00E+00 
FT/FT2       2.44E+08 


**** 06/11/25 02:28:47 ******* PSpice Lite (April 2011) ******* ID# 10813 ****

 Pseudostatystyka RC


 ****     SMALL SIGNAL BIAS SOLUTION       TEMPERATURE =   27.000 DEG C

                      MONTE CARLO PASS 98

******************************************************************************



 NODE   VOLTAGE     NODE   VOLTAGE     NODE   VOLTAGE     NODE   VOLTAGE


(    b)    3.6560  (    c)    9.0111  (    e)    3.0072  (   in)    0.0000      

(  out)    0.0000  (  vcc)   15.0000  




    VOLTAGE SOURCE CURRENTS
    NAME         CURRENT

    vcc         -4.142E-03
    vin          0.000E+00

    TOTAL POWER DISSIPATION   6.21E-02  WATTS


**** 06/11/25 02:28:47 ******* PSpice Lite (April 2011) ******* ID# 10813 ****

 Pseudostatystyka RC


 ****     OPERATING POINT INFORMATION      TEMPERATURE =   27.000 DEG C

                      MONTE CARLO PASS 98

******************************************************************************






**** BIPOLAR JUNCTION TRANSISTORS


NAME         q1        
MODEL        bc107     
IB           1.69E-05 
IC           3.99E-03 
VBE          6.49E-01 
VBC         -5.36E+00 
VCE          6.00E+00 
BETADC       2.36E+02 
GM           1.54E-01 
RPI          1.75E+03 
RX           0.00E+00 
RO           6.61E+03 
CBE          9.74E-11 
CBC          2.69E-12 
CJS          0.00E+00 
BETAAC       2.69E+02 
CBX/CBX2     0.00E+00 
FT/FT2       2.44E+08 


**** 06/11/25 02:28:47 ******* PSpice Lite (April 2011) ******* ID# 10813 ****

 Pseudostatystyka RC


 ****     SMALL SIGNAL BIAS SOLUTION       TEMPERATURE =   27.000 DEG C

                      MONTE CARLO PASS 99

******************************************************************************



 NODE   VOLTAGE     NODE   VOLTAGE     NODE   VOLTAGE     NODE   VOLTAGE


(    b)    3.5578  (    c)    9.2042  (    e)    2.9101  (   in)    0.0000      

(  out)    0.0000  (  vcc)   15.0000  




    VOLTAGE SOURCE CURRENTS
    NAME         CURRENT

    vcc         -4.006E-03
    vin          0.000E+00

    TOTAL POWER DISSIPATION   6.01E-02  WATTS


**** 06/11/25 02:28:47 ******* PSpice Lite (April 2011) ******* ID# 10813 ****

 Pseudostatystyka RC


 ****     OPERATING POINT INFORMATION      TEMPERATURE =   27.000 DEG C

                      MONTE CARLO PASS 99

******************************************************************************






**** BIPOLAR JUNCTION TRANSISTORS


NAME         q1        
MODEL        bc107     
IB           1.63E-05 
IC           3.86E-03 
VBE          6.48E-01 
VBC         -5.65E+00 
VCE          6.29E+00 
BETADC       2.37E+02 
GM           1.49E-01 
RPI          1.82E+03 
RX           0.00E+00 
RO           6.90E+03 
CBE          9.52E-11 
CBC          2.65E-12 
CJS          0.00E+00 
BETAAC       2.70E+02 
CBX/CBX2     0.00E+00 
FT/FT2       2.42E+08 


**** 06/11/25 02:28:47 ******* PSpice Lite (April 2011) ******* ID# 10813 ****

 Pseudostatystyka RC


 ****     SMALL SIGNAL BIAS SOLUTION       TEMPERATURE =   27.000 DEG C

                      MONTE CARLO PASS 100

******************************************************************************



 NODE   VOLTAGE     NODE   VOLTAGE     NODE   VOLTAGE     NODE   VOLTAGE


(    b)    3.3782  (    c)    9.5574  (    e)    2.7326  (   in)    0.0000      

(  out)    0.0000  (  vcc)   15.0000  




    VOLTAGE SOURCE CURRENTS
    NAME         CURRENT

    vcc         -3.781E-03
    vin          0.000E+00

    TOTAL POWER DISSIPATION   5.67E-02  WATTS


**** 06/11/25 02:28:47 ******* PSpice Lite (April 2011) ******* ID# 10813 ****

 Pseudostatystyka RC


 ****     OPERATING POINT INFORMATION      TEMPERATURE =   27.000 DEG C

                      MONTE CARLO PASS 100

******************************************************************************






**** BIPOLAR JUNCTION TRANSISTORS


NAME         q1        
MODEL        bc107     
IB           1.51E-05 
IC           3.63E-03 
VBE          6.46E-01 
VBC         -6.18E+00 
VCE          6.82E+00 
BETADC       2.40E+02 
GM           1.40E-01 
RPI          1.96E+03 
RX           0.00E+00 
RO           7.50E+03 
CBE          9.11E-11 
CBC          2.57E-12 
CJS          0.00E+00 
BETAAC       2.73E+02 
CBX/CBX2     0.00E+00 
FT/FT2       2.37E+08 


**** 06/11/25 02:28:47 ******* PSpice Lite (April 2011) ******* ID# 10813 ****

 Pseudostatystyka RC


 ****     SORTED DEVIATIONS OF V(0)        TEMPERATURE =   27.000 DEG C

                      MONTE CARLO SUMMARY

******************************************************************************





Mean Deviation =    0     
Sigma          =    0     

 RUN                    MAX DEVIATION FROM NOMINAL

Pass    2               0       unchanged  at F =    0     

Pass    3               0       unchanged  at F =    0     

Pass    4               0       unchanged  at F =    0     

Pass    5               0       unchanged  at F =    0     

Pass    6               0       unchanged  at F =    0     

Pass    7               0       unchanged  at F =    0     

Pass    8               0       unchanged  at F =    0     

Pass    9               0       unchanged  at F =    0     

Pass   10               0       unchanged  at F =    0     

Pass   11               0       unchanged  at F =    0     

Pass   12               0       unchanged  at F =    0     

Pass   13               0       unchanged  at F =    0     

Pass   14               0       unchanged  at F =    0     

Pass   15               0       unchanged  at F =    0     

Pass   16               0       unchanged  at F =    0     

Pass   17               0       unchanged  at F =    0     

Pass   18               0       unchanged  at F =    0     

Pass   19               0       unchanged  at F =    0     

Pass   20               0       unchanged  at F =    0     

Pass   21               0       unchanged  at F =    0     

Pass   22               0       unchanged  at F =    0     

Pass   23               0       unchanged  at F =    0     

Pass   24               0       unchanged  at F =    0     

Pass   25               0       unchanged  at F =    0     

Pass   26               0       unchanged  at F =    0     

Pass   27               0       unchanged  at F =    0     

Pass   28               0       unchanged  at F =    0     

Pass   29               0       unchanged  at F =    0     

Pass   30               0       unchanged  at F =    0     

Pass   31               0       unchanged  at F =    0     

Pass   32               0       unchanged  at F =    0     

Pass   33               0       unchanged  at F =    0     

Pass   34               0       unchanged  at F =    0     

Pass   35               0       unchanged  at F =    0     

Pass   36               0       unchanged  at F =    0     

Pass   37               0       unchanged  at F =    0     

Pass   38               0       unchanged  at F =    0     

Pass   39               0       unchanged  at F =    0     

Pass   40               0       unchanged  at F =    0     

Pass   41               0       unchanged  at F =    0     

Pass   42               0       unchanged  at F =    0     

Pass   43               0       unchanged  at F =    0     

Pass   44               0       unchanged  at F =    0     

Pass   45               0       unchanged  at F =    0     

Pass   46               0       unchanged  at F =    0     

Pass   47               0       unchanged  at F =    0     

Pass   48               0       unchanged  at F =    0     

Pass   49               0       unchanged  at F =    0     

Pass   50               0       unchanged  at F =    0     

Pass   51               0       unchanged  at F =    0     

Pass   52               0       unchanged  at F =    0     

Pass   53               0       unchanged  at F =    0     

Pass   54               0       unchanged  at F =    0     

Pass   55               0       unchanged  at F =    0     

Pass   56               0       unchanged  at F =    0     

Pass   57               0       unchanged  at F =    0     

Pass   58               0       unchanged  at F =    0     

Pass   59               0       unchanged  at F =    0     

Pass   60               0       unchanged  at F =    0     

Pass   61               0       unchanged  at F =    0     

Pass   62               0       unchanged  at F =    0     

Pass   63               0       unchanged  at F =    0     

Pass   64               0       unchanged  at F =    0     

Pass   65               0       unchanged  at F =    0     

Pass   66               0       unchanged  at F =    0     

Pass   67               0       unchanged  at F =    0     

Pass   68               0       unchanged  at F =    0     

Pass   69               0       unchanged  at F =    0     

Pass   70               0       unchanged  at F =    0     

Pass   71               0       unchanged  at F =    0     

Pass   72               0       unchanged  at F =    0     

Pass   73               0       unchanged  at F =    0     

Pass   74               0       unchanged  at F =    0     

Pass   75               0       unchanged  at F =    0     

Pass   76               0       unchanged  at F =    0     

Pass   77               0       unchanged  at F =    0     

Pass   78               0       unchanged  at F =    0     

Pass   79               0       unchanged  at F =    0     

Pass   80               0       unchanged  at F =    0     

Pass   81               0       unchanged  at F =    0     

Pass   82               0       unchanged  at F =    0     

Pass   83               0       unchanged  at F =    0     

Pass   84               0       unchanged  at F =    0     

Pass   85               0       unchanged  at F =    0     

Pass   86               0       unchanged  at F =    0     

Pass   87               0       unchanged  at F =    0     

Pass   88               0       unchanged  at F =    0     

Pass   89               0       unchanged  at F =    0     

Pass   90               0       unchanged  at F =    0     

Pass   91               0       unchanged  at F =    0     

Pass   92               0       unchanged  at F =    0     

Pass   93               0       unchanged  at F =    0     

Pass   94               0       unchanged  at F =    0     

Pass   95               0       unchanged  at F =    0     

Pass   96               0       unchanged  at F =    0     

Pass   97               0       unchanged  at F =    0     

Pass   98               0       unchanged  at F =    0     

Pass   99               0       unchanged  at F =    0     

Pass  100               0       unchanged  at F =    0     



          JOB CONCLUDED

**** 06/11/25 02:28:47 ******* PSpice Lite (April 2011) ******* ID# 10813 ****

 Pseudostatystyka RC


 ****     JOB STATISTICS SUMMARY


******************************************************************************



  Total job time (using Solver 1)   =         .17

**** 06/11/25 02:28:47 ******* PSpice Lite (April 2011) ******* ID# 10813 ****

  


 ****     CIRCUIT DESCRIPTION


******************************************************************************



;Nie mam pojcia jak to dziaa ok. To jest porbane
;No ale teoretycznie co jest
;No ale ogolnie Performance Analysis => Wizard => Next => ConversionGain => V(out), V(in) => Next => mamy histogram => szukamy minim
