
**** 06/11/25 01:32:45 ******* PSpice Lite (April 2011) ******* ID# 10813 ****

 BJT MS


 ****     CIRCUIT DESCRIPTION


******************************************************************************



vcc vcc 0 15
vin in 0 AC 1
c1 in b 100n

rb1 vcc b 67k
rb2 b 0 33k

q1 c b e bc107

.model BC107 NPN(Is=40.72f  Bf=407 Vaf=21.03 Ikf=1 Ise=40.72f Ne=1.305 Ikr=3.726
 + Isc=594.8p Nc=2.033 Rc=1.393 Cje=12.5p Vje=.5391 Mje=.4869 Tf=441.1p Cjc=6p
 + Mjc=.3821 Tr=114n Xtb=1.5)

 rc c vcc 1.5k
 re e 0 750
 ce e 0 1000u

 c2 c out 100n
 rload out 0 1g

 .ac dec 100 10 10G
 .probe

**** 06/11/25 01:32:45 ******* PSpice Lite (April 2011) ******* ID# 10813 ****

 BJT MS


 ****     BJT MODEL PARAMETERS


******************************************************************************




               bc107           
               NPN             
       LEVEL    1            
          IS   40.720000E-15 
          BF  407            
          NF    1            
         VAF   21.03         
         IKF    1            
         ISE   40.720000E-15 
          NE    1.305        
          BR    1            
          NR    1            
         IKR    3.726        
         ISC  594.800000E-12 
          NC    2.033        
         ISS    0            
          RE    0            
          RC    1.393        
         CJE   12.500000E-12 
         VJE     .5391       
         MJE     .4869       
         CJC    6.000000E-12 
         VJC     .75         
         MJC     .3821       
        XCJC    1            
         CJS    0            
         VJS     .75         
          TF  441.100000E-12 
          TR  114.000000E-09 
         XTB    1.5          
          KF    0            
          AF    1            
          CN    2.42         
           D     .87         


**** 06/11/25 01:32:45 ******* PSpice Lite (April 2011) ******* ID# 10813 ****

 BJT MS


 ****     SMALL SIGNAL BIAS SOLUTION       TEMPERATURE =   27.000 DEG C


******************************************************************************



 NODE   VOLTAGE     NODE   VOLTAGE     NODE   VOLTAGE     NODE   VOLTAGE


(    b)    4.4515  (    c)    7.4455  (    e)    3.7942  (   in)    0.0000      

(  out)    0.0000  (  vcc)   15.0000  




    VOLTAGE SOURCE CURRENTS
    NAME         CURRENT

    vcc         -5.194E-03
    vin          0.000E+00

    TOTAL POWER DISSIPATION   7.79E-02  WATTS



          JOB CONCLUDED

**** 06/11/25 01:32:45 ******* PSpice Lite (April 2011) ******* ID# 10813 ****

 BJT MS


 ****     JOB STATISTICS SUMMARY


******************************************************************************



  Total job time (using Solver 1)   =         .05
