
**** 06/11/25 01:44:44 ******* PSpice Lite (April 2011) ******* ID# 10813 ****

 Zabezpieczenie termiczne


 ****     CIRCUIT DESCRIPTION


******************************************************************************




.model BC107 NPN(Is=40.72f Bf=407 Vaf=21.03 Ikf=1 Ise=40.72f Ne=1.305 Ikr=3.726
+ Isc=594.8p Nc=2.033 Rc=1.393 Cje=12.5p Vje=.5391 Mje=.4869 Tf=441.1p Cjc=6p
+ Mjc=.3821 Tr=114n Xtb=1.5 )

.model BC547B NPN(IS=2.39E-14 NF=1.008 ISE=3.545E-15 NE=1.541 BF=294.3 IKF=0.1357 
+ VAF=63.2 NR=1.004 ISC=6.272E-14 NC=1.243 BR=7.946 IKR=0.1144 VAR=25.9 RB=1 IRB=1.00E-06 
+ RBM=1 RE=0.4683 RC=0.85 XTB=0 EG=1.11 XTI=3 CJE=1.358E-11 VJE=0.65 MJE=0.3279 TF=4.391E-10 
+ XTF=120 VTF=2.643 ITF=0.7495 PTF=0 CJC=3.728E-12 VJC=0.3997 MJC=0.2955 XCJC=0.6193 TR=1.00E-32 
+ CJS=0 VJS=0.75 MJS=0.333 FC=0.9579)

.model BZX84C12L D(Is=.6n Rs=.5 Cjo=150p nbv=5 bv=12 Ibv=1m)

V vcc 0 30

Q1 vcc 1 out  BC107 
Q2 1 2 0 BC107

D 0 1 BZX84C12L


R1 out 0 1k
R2 2 3 1k
R3 vcc 2 82k
R4 vcc 1 2.2k

* przemiatamy Rezystor
* szukamy punktu gdzie Vout jest rowne 90% wartosci napiecia [10.44V], gdy Rezystor ma 400Ohm (20 st. C jako temp. pokojowa) [11.607
* jak znajdziemy punkt gdzie napiecie ma 10.44V to szukamy X czyli wartosci Rezystora
* wychodzi 1016.2Ohm
* jako ze wzor to Rezystor = czulosc * temperatura, gdzie czu³oœæ to 20 [Ohm/st. C],to
* szukana temperatura to Rezystor / czulosc czyli 1016.2/20 = 50.8 [st. C]
.param Rezystor 100
R5 3 0 {Rezystor}

.dc param Rezystor 200 2000 1
.probe


.end

**** 06/11/25 01:44:44 ******* PSpice Lite (April 2011) ******* ID# 10813 ****

 Zabezpieczenie termiczne


 ****     Diode MODEL PARAMETERS


******************************************************************************




               BZX84C12L       
          IS  600.000000E-12 
          BV   12            
         IBV    1.000000E-03 
         NBV    5            
          RS     .5          
         CJO  150.000000E-12 


**** 06/11/25 01:44:44 ******* PSpice Lite (April 2011) ******* ID# 10813 ****

 Zabezpieczenie termiczne


 ****     BJT MODEL PARAMETERS


******************************************************************************




               BC107           BC547B          
               NPN             NPN             
       LEVEL    1               1            
          IS   40.720000E-15   23.900000E-15 
          BF  407             294.3          
          NF    1               1.008        
         VAF   21.03           63.2          
         IKF    1                .1357       
         ISE   40.720000E-15    3.545000E-15 
          NE    1.305           1.541        
          BR    1               7.946        
          NR    1               1.004        
         VAR                   25.9          
         IKR    3.726            .1144       
         ISC  594.800000E-12   62.720000E-15 
          NC    2.033           1.243        
         ISS    0               0            
          RB                    1            
         RBM                    1            
         IRB                    1.000000E-06 
          RE    0                .4683       
          RC    1.393            .85         
         CJE   12.500000E-12   13.580000E-12 
         VJE     .5391           .65         
         MJE     .4869           .3279       
         CJC    6.000000E-12    3.728000E-12 
         VJC     .75             .3997       
         MJC     .3821           .2955       
        XCJC    1                .6193       
         CJS    0               0            
         VJS     .75             .75         
         MJS                     .333        
          FC                     .9579       
          TF  441.100000E-12  439.100000E-12 
         XTF                  120            
         VTF                    2.643        
         ITF                     .7495       
          TR  114.000000E-09    0            
         XTB    1.5                          
          KF    0               0            
          AF    1               1            
          CN    2.42            2.42         
           D     .87             .87         



          JOB CONCLUDED

**** 06/11/25 01:44:44 ******* PSpice Lite (April 2011) ******* ID# 10813 ****

 Zabezpieczenie termiczne


 ****     JOB STATISTICS SUMMARY


******************************************************************************



  Total job time (using Solver 1)   =         .08
